version 2
run Default-0-20220224-19:01:11-341472
attr configname Default
attr datetime 20220224-19:01:11
attr experiment Default
attr inifile omnetpp.ini
attr iterationvars ""
attr iterationvarsf ""
attr measurement ""
attr network smartjunctionScenario
attr processid 341472
attr repetition 0
attr replication #0
attr resultdir results
attr runnumber 0
attr seedset 0
param *.playgroundSizeX 850m
param *.playgroundSizeY 850m
param *.playgroundSizeZ 10m
param *.annotations.draw true
param *.manager.updateInterval 1s
param *.manager.host "\"localhost\""
param *.manager.port 9999
param *.manager.autoShutdown true
param *.manager.launchConfig "xmldoc(\"smartjunction.launchd.xml\")"
param *.rsu[0].mobility.x 215
param *.rsu[0].mobility.y 215
param *.rsu[0].mobility.z 3
param *.rsu[*].applType "\"SmartJunctionRSUApp_stop\""
param *.rsu[*].appl.headerLength "80 bit"
param *.rsu[*].appl.sendBeacons true
param *.rsu[*].appl.dataOnSch false
param *.rsu[*].appl.beaconInterval 20s
param *.rsu[*].appl.beaconUserPriority 7
param *.rsu[*].appl.dataUserPriority 5
param *.rsu[*].nic.phy80211p.antennaOffsetZ "0 m"
param *.connectionManager.sendDirect true
param *.connectionManager.maxInterfDist 2600m
param *.connectionManager.drawMaxIntfDist false
param *.**.nic.mac1609_4.useServiceChannel false
param *.**.nic.mac1609_4.txPower 20mW
param *.**.nic.mac1609_4.bitrate 6Mbps
param *.**.nic.phy80211p.minPowerLevel -110dBm
param *.**.nic.phy80211p.useNoiseFloor true
param *.**.nic.phy80211p.noiseFloor -98dBm
param *.**.nic.phy80211p.decider "xmldoc(\"config.xml\")"
param *.**.nic.phy80211p.analogueModels "xmldoc(\"config.xml\")"
param *.**.nic.phy80211p.usePropagationDelay true
param *.**.nic.phy80211p.antenna "xmldoc(\"antenna.xml\", \"/root/Antenna[@id='monopole']\")"
param *.node[*].nic.phy80211p.antennaOffsetY "0 m"
param *.node[*].nic.phy80211p.antennaOffsetZ "1.895 m"
param *.node[*].applType "\"SmartJunctionCarApp_stop\""
param *.node[*].appl.headerLength "80 bit"
param *.node[*].appl.sendBeacons false
param *.node[*].appl.dataOnSch false
param *.node[*].appl.beaconInterval 1s
param *.node[*].veinsmobility.x 0
param *.node[*].veinsmobility.y 0
param *.node[*].veinsmobility.z 0
param *.node[*].veinsmobility.setHostSpeed false

vector 0 smartjunctionScenario.node[0].veinsmobility posx ETV
vector 1 smartjunctionScenario.node[0].veinsmobility posy ETV
vector 2 smartjunctionScenario.node[1].veinsmobility posx ETV
vector 3 smartjunctionScenario.node[1].veinsmobility posy ETV
vector 4 smartjunctionScenario.node[0].veinsmobility speed ETV
vector 5 smartjunctionScenario.node[1].veinsmobility speed ETV
vector 6 smartjunctionScenario.node[0].veinsmobility acceleration ETV
vector 7 smartjunctionScenario.node[0].veinsmobility co2emission ETV
vector 8 smartjunctionScenario.node[1].veinsmobility acceleration ETV
vector 9 smartjunctionScenario.node[1].veinsmobility co2emission ETV
vector 10 smartjunctionScenario.node[2].veinsmobility posx ETV
vector 11 smartjunctionScenario.node[2].veinsmobility posy ETV
vector 12 smartjunctionScenario.node[3].veinsmobility posx ETV
vector 13 smartjunctionScenario.node[3].veinsmobility posy ETV
vector 14 smartjunctionScenario.node[2].veinsmobility speed ETV
vector 15 smartjunctionScenario.node[3].veinsmobility speed ETV
vector 16 smartjunctionScenario.node[2].veinsmobility acceleration ETV
vector 17 smartjunctionScenario.node[2].veinsmobility co2emission ETV
vector 18 smartjunctionScenario.node[3].veinsmobility acceleration ETV
vector 19 smartjunctionScenario.node[3].veinsmobility co2emission ETV
vector 20 smartjunctionScenario.node[4].veinsmobility posx ETV
vector 21 smartjunctionScenario.node[4].veinsmobility posy ETV
vector 22 smartjunctionScenario.node[5].veinsmobility posx ETV
vector 23 smartjunctionScenario.node[5].veinsmobility posy ETV
vector 24 smartjunctionScenario.node[4].veinsmobility speed ETV
vector 25 smartjunctionScenario.node[5].veinsmobility speed ETV
vector 26 smartjunctionScenario.node[4].veinsmobility acceleration ETV
vector 27 smartjunctionScenario.node[4].veinsmobility co2emission ETV
vector 28 smartjunctionScenario.node[5].veinsmobility acceleration ETV
vector 29 smartjunctionScenario.node[5].veinsmobility co2emission ETV
vector 30 smartjunctionScenario.node[6].veinsmobility posx ETV
vector 31 smartjunctionScenario.node[6].veinsmobility posy ETV
vector 32 smartjunctionScenario.node[7].veinsmobility posx ETV
vector 33 smartjunctionScenario.node[7].veinsmobility posy ETV
vector 34 smartjunctionScenario.node[6].veinsmobility speed ETV
vector 35 smartjunctionScenario.node[7].veinsmobility speed ETV
vector 36 smartjunctionScenario.node[6].veinsmobility acceleration ETV
vector 37 smartjunctionScenario.node[6].veinsmobility co2emission ETV
vector 38 smartjunctionScenario.node[7].veinsmobility acceleration ETV
vector 39 smartjunctionScenario.node[7].veinsmobility co2emission ETV
vector 40 smartjunctionScenario.node[8].veinsmobility posx ETV
vector 41 smartjunctionScenario.node[8].veinsmobility posy ETV
vector 42 smartjunctionScenario.node[9].veinsmobility posx ETV
vector 43 smartjunctionScenario.node[9].veinsmobility posy ETV
vector 44 smartjunctionScenario.node[8].veinsmobility speed ETV
vector 45 smartjunctionScenario.node[9].veinsmobility speed ETV
vector 46 smartjunctionScenario.node[8].veinsmobility acceleration ETV
vector 47 smartjunctionScenario.node[8].veinsmobility co2emission ETV
vector 48 smartjunctionScenario.node[9].veinsmobility acceleration ETV
vector 49 smartjunctionScenario.node[9].veinsmobility co2emission ETV
vector 50 smartjunctionScenario.node[10].veinsmobility posx ETV
vector 51 smartjunctionScenario.node[10].veinsmobility posy ETV
vector 52 smartjunctionScenario.node[11].veinsmobility posx ETV
vector 53 smartjunctionScenario.node[11].veinsmobility posy ETV
vector 54 smartjunctionScenario.node[10].veinsmobility speed ETV
vector 55 smartjunctionScenario.node[11].veinsmobility speed ETV
vector 56 smartjunctionScenario.node[10].veinsmobility acceleration ETV
vector 57 smartjunctionScenario.node[10].veinsmobility co2emission ETV
vector 58 smartjunctionScenario.node[11].veinsmobility acceleration ETV
vector 59 smartjunctionScenario.node[11].veinsmobility co2emission ETV
vector 60 smartjunctionScenario.node[12].veinsmobility posx ETV
vector 61 smartjunctionScenario.node[12].veinsmobility posy ETV
vector 62 smartjunctionScenario.node[13].veinsmobility posx ETV
vector 63 smartjunctionScenario.node[13].veinsmobility posy ETV
vector 64 smartjunctionScenario.node[12].veinsmobility speed ETV
vector 65 smartjunctionScenario.node[13].veinsmobility speed ETV
9	4	3	2.855494162119
9	5	4	4.8269040176205
9	6	5	4.8702729818353
9	7	6	5.549573318084
9	8	7	9.4104968786684
9	9	8	5.4113287149858
9	10	9	3.0902519481363
9	11	10	4.5090833124425
9	12	11	0.973
9	13	12	3.1337435502529
9	14	13	0.973
9	15	14	1.9349630735384
9	16	15	1.7343618651288
9	17	16	2.2430346327843
9	299	17	1.7176820437688
9	300	18	3.4392781365662
9	301	19	4.8817776621374
9	302	20	1.9642173129076
9	303	21	1.3660896806017
9	304	22	0.973
9	305	23	3.6060045227678
9	306	24	3.5810213259171
9	307	25	0.973
9	308	26	1.9064974260248
9	309	27	1.9903844222448
9	310	28	2.072689253151
9	311	29	2.6830256151562
9	312	30	0.973
9	313	31	4.0543086965811
9	314	32	1.9986680882218
8	4	3	1.5609465687769
8	5	4	2.2241574415937
8	6	5	1.7162051725201
8	7	6	1.6627437446266
8	8	7	2.5530080158263
8	9	8	1.0712074227739
8	10	9	0.33010379255284
8	11	10	0.70311632596422
8	12	11	-0.8961855674861
8	13	12	0.33547408955637
8	14	13	-0.38906518246513
8	15	14	-0.013392625399865
8	16	15	-0.073708114400507
8	17	16	0.08174600841012
8	299	17	-0.078971386840568
8	300	18	0.43002575966529
8	301	19	0.79444916914217
8	302	20	-0.036643777950667
8	303	21	-0.20436282765586
8	304	22	-0.75963758639991
8	305	23	0.46374235481489
8	306	24	0.42987335824873
8	307	25	-0.42290495529305
8	308	26	-0.038671871786937
8	309	27	-0.013379719434306
8	310	28	0.010737839015201
8	311	29	0.18387910590973
8	312	30	-0.47862597291823
8	313	31	0.57854730258696
8	314	32	-0.019005759409628
5	3	2	2.5366576599656
5	4	3	4.0976042287424
5	5	4	6.3217616703361
5	6	5	8.0379668428563
5	7	6	9.7007105874829
5	8	7	12.253718603309
5	9	8	13.324926026083
5	10	9	13.655029818636
5	11	10	14.3581461446
5	12	11	13.461960577114
5	13	12	13.79743466667
5	14	13	13.408369484205
5	15	14	13.394976858805
5	16	15	13.321268744405
5	17	16	13.403014752815
5	299	17	13.324043365975
5	300	18	13.75406912564
5	301	19	14.548518294782
5	302	20	14.511874516831
5	303	21	14.307511689175
5	304	22	13.547874102776
5	305	23	14.01161645759
5	306	24	14.441489815839
5	307	25	14.018584860546
5	308	26	13.979912988759
5	309	27	13.966533269325
5	310	28	13.97727110834
5	311	29	14.16115021425
5	312	30	13.682524241332
5	313	31	14.261071543919
5	314	32	14.242065784509
3	2	1	419.9
3	3	2	417.36334234003
3	4	3	413.26573811129
3	5	4	406.94397644096
3	6	5	398.9060095981
3	7	6	389.20529901062
3	8	7	376.95158040731
3	9	8	363.62665438122
3	10	9	349.97162456259
3	11	10	335.61347841799
3	12	11	322.25151784087
3	13	12	308.4540831742
3	14	13	295.04571369
3	15	14	281.65073683119
3	16	15	268.32946808679
3	17	16	254.92645333397
3	299	17	241.602409968
3	300	18	227.84834084236
3	301	19	213.29982254758
3	302	20	198.78794803075
3	303	21	184.48043634157
3	304	22	170.93256223879
3	305	23	156.9209457812
3	306	24	142.47945596536
3	307	25	128.46087110482
3	308	26	114.58095811606
3	309	27	100.61442484673
3	310	28	86.637153738394
3	311	29	72.476003524144
3	312	30	58.793479282813
3	313	31	44.532407738894
3	314	32	30.290341954385
2	2	1	226.6
2	3	2	226.6
2	4	3	226.6
2	5	4	226.6
2	6	5	226.6
2	7	6	226.6
2	8	7	226.6
2	9	8	226.6
2	10	9	226.6
2	11	10	226.6
2	12	11	226.6
2	13	12	226.6
2	14	13	226.6
2	15	14	226.6
2	16	15	226.6
2	17	16	226.6
2	299	17	226.6
2	300	18	226.6
2	301	19	226.6
2	302	20	226.6
2	303	21	226.6
2	304	22	226.6
2	305	23	226.6
2	306	24	226.6
2	307	25	226.6
2	308	26	226.6
2	309	27	226.6
2	310	28	226.6
2	311	29	226.6
2	312	30	226.6
2	313	31	226.6
2	314	32	226.6
vector 66 smartjunctionScenario.node[12].veinsmobility acceleration ETV
vector 67 smartjunctionScenario.node[12].veinsmobility co2emission ETV
vector 68 smartjunctionScenario.node[13].veinsmobility acceleration ETV
vector 69 smartjunctionScenario.node[13].veinsmobility co2emission ETV
7	4	3	2.5581010323852
7	5	4	3.5871024302828
7	6	5	4.9396016643922
7	7	6	6.6364209888844
7	8	7	8.8273458045889
7	9	8	10.097346509158
7	10	9	6.5779995483845
7	11	10	1.6482285946972
7	12	11	0.973
7	13	12	0.973
7	14	13	5.3125240237918
7	15	14	0.973
7	16	15	5.3219505055875
7	17	16	0.973
7	299	17	0.973
7	300	18	0.973
7	301	19	0.973
7	302	20	5.8810777989124
7	303	21	6.3120565286112
7	304	22	6.6058126342972
7	305	23	6.2392459506235
7	306	24	9.6605718913093
7	307	25	3.5451962037853
7	308	26	0.973
7	309	27	3.3327564391522
7	310	28	3.3551372664331
7	311	29	1.5798752933715
7	312	30	3.4437791458929
7	313	31	0.973
7	314	32	5.1600135656383
7	315	33	0.973
6	4	3	1.6951142302249
6	5	4	1.8430399890523
6	6	5	2.0367762609618
6	7	6	2.2375093692681
6	8	7	2.4715285003651
6	9	8	2.3649280806305
6	10	9	1.1919769406052
6	11	10	-0.14112848560326
6	12	11	-0.47024997947737
6	13	12	-0.44084055139683
6	14	13	0.86525854810607
6	15	14	-0.52660172043834
6	16	15	0.8406546612503
6	17	16	-2.1681824030202
6	299	17	-3.1796313854788
6	300	18	-4.5
6	301	19	-0.43711885820195
6	302	20	2.3995883058989
6	303	21	2.0199117310578
6	304	22	1.7626134104794
6	305	23	1.407928625471
6	306	24	2.1050269616535
6	307	25	0.3748406436861
6	308	26	-0.57822830739897
6	309	27	0.32985600400716
6	310	28	0.31936033035163
6	311	29	-0.15912402865943
6	312	30	0.33418089298066
6	313	31	-1.2078481578501
6	314	32	0.82650425084867
6	315	33	-0.58237381922081
4	3	2	1.4688386279158
4	4	3	3.1639528581407
4	5	4	5.006992847193
4	6	5	7.0437691081548
4	7	6	9.2812784774229
4	8	7	11.752806977788
4	9	8	14.117735058418
4	10	9	15.309711999024
4	11	10	15.16858351342
4	12	11	14.698333533943
4	13	12	14.257492982546
4	14	13	15.122751530652
4	15	14	14.596149810214
4	16	15	15.436804471464
4	17	16	13.268622068444
4	299	17	10.088990682965
4	300	18	5.5889906829653
4	301	19	5.1518718247633
4	302	20	7.5514601306622
4	303	21	9.57137186172
4	304	22	11.333985272199
4	305	23	12.74191389767
4	306	24	14.846940859324
4	307	25	15.22178150301
4	308	26	14.643553195611
4	309	27	14.973409199618
4	310	28	15.29276952997
4	311	29	15.13364550131
4	312	30	15.467826394291
4	313	31	14.259978236441
4	314	32	15.08648248729
4	315	33	14.504108668069
1	2	1	226.6
1	3	2	226.6
1	4	3	226.6
1	5	4	226.6
1	6	5	226.6
1	7	6	226.6
1	8	7	226.6
1	9	8	226.6
1	10	9	226.6
1	11	10	226.6
1	12	11	226.6
1	13	12	226.6
1	14	13	226.6
1	15	14	226.6
1	16	15	226.6
1	17	16	226.6
1	299	17	226.6
1	300	18	226.6
1	301	19	226.6
1	302	20	226.6
1	303	21	226.6
1	304	22	226.6
1	305	23	226.6
1	306	24	226.6
1	307	25	226.6
1	308	26	226.6
1	309	27	226.6
1	310	28	226.6
1	311	29	226.6
1	312	30	226.6
1	313	31	226.6
1	314	32	226.6
1	315	33	226.6
0	2	1	30.1
0	3	2	31.568838627916
0	4	3	34.732791486057
0	5	4	39.73978433325
0	6	5	46.783553441404
0	7	6	56.064831918827
0	8	7	67.817638896615
0	9	8	81.935373955034
0	10	9	97.245085954057
0	11	10	112.41366946748
0	12	11	127.01200300142
0	13	12	141.26949598397
0	14	13	156.39224751462
0	15	14	170.98839732483
0	16	15	186.4252017963
0	17	16	199.69382386474
0	299	17	209.78281454771
0	300	18	215.37180523067
0	301	19	220.52367705544
0	302	20	228.0751371861
0	303	21	237.64650904782
0	304	22	248.98049432002
0	305	23	261.72240821769
0	306	24	276.56934907701
0	307	25	291.79113058002
0	308	26	306.43468377563
0	309	27	321.40809297525
0	310	28	336.60086250522
0	311	29	351.73450800653
0	312	30	367.20233440082
0	313	31	381.46231263726
0	314	32	396.54879512455
0	315	33	411.05290379262
vector 70 smartjunctionScenario.node[14].veinsmobility posx ETV
vector 71 smartjunctionScenario.node[14].veinsmobility posy ETV
vector 72 smartjunctionScenario.node[15].veinsmobility posx ETV
vector 73 smartjunctionScenario.node[15].veinsmobility posy ETV
vector 74 smartjunctionScenario.node[14].veinsmobility speed ETV
vector 75 smartjunctionScenario.node[15].veinsmobility speed ETV
19	9	8	4.1140487187858
19	10	9	6.0492863237218
19	11	10	6.7884645328406
19	12	11	6.5598327747167
19	13	12	9.032730932749
19	14	13	0.973
19	15	14	4.8503780377074
19	16	15	0.973
19	17	16	3.6313293680784
19	299	17	0.973
19	300	18	5.4792584011706
19	301	19	0.973
19	302	20	1.7469230494651
19	303	21	0.973
19	304	22	4.4375465599493
19	305	23	1.3931989420694
19	306	24	2.6590789731771
19	307	25	0.973
19	308	26	4.7789931000711
19	309	27	1.6522268050992
19	310	28	0.973
19	311	29	2.6699729300919
19	312	30	3.8088983890413
19	313	31	1.7031219475677
19	314	32	2.5762697805346
19	315	33	0.973
19	316	34	2.4599471818341
19	317	35	4.5915698739724
19	318	36	0.973
19	872	37	3.5181664164008
18	9	8	2.3323004034348
18	10	9	2.5339947584318
18	11	10	2.2070465430152
18	12	11	1.7369166160468
18	13	12	2.1575607854174
18	14	13	-0.50882391326378
18	15	14	0.84457320133224
18	16	15	-0.37467769777868
18	17	16	0.47362858685665
18	299	17	-0.93245461296756
18	300	18	1.0139322587755
18	301	19	-0.78580573385116
18	302	20	-0.066822656919248
18	303	21	-0.33630229604896
18	304	22	0.74330192715861
18	305	23	-0.18177901301533
18	306	24	0.20026489710435
18	307	25	-0.34896115530282
18	308	26	0.80470238595735
18	309	27	-0.1139339807909
18	310	28	-1.085014008428
18	311	29	0.2275443459861
18	312	30	0.54804935185239
18	313	31	-0.089429757627657
18	314	32	0.17019022596069
18	315	33	-0.70175332990475
18	316	34	0.15749642171431
18	317	35	0.76015820933972
18	318	36	-0.66961777380202
18	872	37	0.45454414158594
15	8	7	2.5718988770619
15	9	8	4.9041992804967
15	10	9	7.4381940389285
15	11	10	9.6452405819437
15	12	11	11.38215719799
15	13	12	13.539717983408
15	14	13	13.030894070144
15	15	14	13.875467271476
15	16	15	13.500789573698
15	17	16	13.974418160554
15	299	17	13.041963547587
15	300	18	14.055895806362
15	301	19	13.270090072511
15	302	20	13.203267415592
15	303	21	12.866965119543
15	304	22	13.610267046701
15	305	23	13.428488033686
15	306	24	13.62875293079
15	307	25	13.279791775488
15	308	26	14.084494161445
15	309	27	13.970560180654
15	310	28	12.885546172226
15	311	29	13.113090518212
15	312	30	13.661139870065
15	313	31	13.571710112437
15	314	32	13.741900338398
15	315	33	13.040147008493
15	316	34	13.197643430207
15	317	35	13.957801639547
15	318	36	13.288183865745
15	872	37	13.742728007331
13	7	6	419.9
13	8	7	417.32810112294
13	9	8	412.42390184244
13	10	9	404.98570780351
13	11	10	395.34046722157
13	12	11	383.95831002358
13	13	12	370.41859204017
13	14	13	357.38769797003
13	15	14	343.51223069855
13	16	15	330.01144112485
13	17	16	316.1370229643
13	299	17	303.09505941671
13	300	18	289.03916361035
13	301	19	275.76907353784
13	302	20	262.56580612225
13	303	21	249.6988410027
13	304	22	236.088573956
13	305	23	222.66008592232
13	306	24	209.03133299153
13	307	25	195.75154121604
13	308	26	181.66704705459
13	309	27	167.69648687394
13	310	28	154.81094070171
13	311	29	141.6978501835
13	312	30	128.03671031344
13	313	31	114.565000201
13	314	32	100.8230998626
13	315	33	87.782952854108
13	316	34	74.585309423901
13	317	35	60.627507784354
13	318	36	47.339323918609
13	872	37	33.596595911278
12	7	6	226.6
12	8	7	226.6
12	9	8	226.6
12	10	9	226.6
12	11	10	226.6
12	12	11	226.6
12	13	12	226.6
12	14	13	226.6
12	15	14	226.6
12	16	15	226.6
12	17	16	226.6
12	299	17	226.6
12	300	18	226.6
12	301	19	226.6
12	302	20	226.6
12	303	21	226.6
12	304	22	226.6
12	305	23	226.6
12	306	24	226.6
12	307	25	226.6
12	308	26	226.6
12	309	27	226.6
12	310	28	226.6
12	311	29	226.6
12	312	30	226.6
12	313	31	226.6
12	314	32	226.6
12	315	33	226.6
12	316	34	226.6
12	317	35	226.6
12	318	36	226.6
12	872	37	226.6
vector 76 smartjunctionScenario.node[14].veinsmobility acceleration ETV
vector 77 smartjunctionScenario.node[14].veinsmobility co2emission ETV
vector 78 smartjunctionScenario.node[15].veinsmobility acceleration ETV
vector 79 smartjunctionScenario.node[15].veinsmobility co2emission ETV
29	14	13	3.1041634291173
29	15	14	5.4136202411038
29	16	15	4.391515230044
29	17	16	7.8309397590791
29	299	17	6.4891640323039
29	300	18	9.2623104592497
29	301	19	7.2152432061861
29	302	20	0.973
29	303	21	5.5899681273134
29	304	22	0.973
29	305	23	5.4269726388993
29	306	24	0.973
29	307	25	1.2803339660958
29	308	26	5.4435777032742
29	309	27	0.973
29	310	28	3.708927356529
29	311	29	2.5673430734215
29	312	30	3.0825192665212
29	313	31	2.5500104996919
29	314	32	0.973
29	315	33	4.1221757013039
29	316	34	0.973
29	317	35	3.3180617303021
29	318	36	1.7539893652629
29	872	37	3.8087953448271
29	873	38	0.973
29	874	39	3.0663906804568
29	875	40	0.973
28	14	13	1.84133133383
28	15	14	2.5095577547094
28	16	15	1.472374163894
28	17	16	2.4267873282079
28	299	17	1.5970371956937
28	300	18	2.1121297462843
28	301	19	1.3420435317121
28	302	20	-0.7036677768454
28	303	21	0.8904618130764
28	304	22	-0.50807113295887
28	305	23	0.82120002612937
28	306	24	-0.80181157740299
28	307	25	-0.23870947510004
28	308	26	0.84204109653365
28	309	27	-0.80951530318707
28	310	28	0.40908361265902
28	311	29	0.097890272294171
28	312	30	0.22553431093693
28	313	31	0.082057493203319
28	314	32	-0.80547373222653
28	315	33	0.51315661247354
28	316	34	-0.43729765273165
28	317	35	0.304758393066
28	318	36	-0.11450098215137
28	872	37	0.41935537375975
28	873	38	-0.76237923766021
28	874	39	0.24667410454713
28	875	40	-0.41068052484188
25	13	12	2.1994512931444
25	14	13	4.0407826269744
25	15	14	6.5503403816838
25	16	15	8.0227145455778
25	17	16	10.449501873786
25	299	17	12.046539069479
25	300	18	14.158668815764
25	301	19	15.500712347476
25	302	20	14.79704457063
25	303	21	15.687506383707
25	304	22	15.179435250748
25	305	23	16.000635276877
25	306	24	15.198823699474
25	307	25	14.960114224374
25	308	26	15.802155320908
25	309	27	14.992640017721
25	310	28	15.40172363038
25	311	29	15.499613902674
25	312	30	15.725148213611
25	313	31	15.807205706814
25	314	32	15.001731974588
25	315	33	15.514888587061
25	316	34	15.07759093433
25	317	35	15.382349327396
25	318	36	15.267848345244
25	872	37	15.687203719004
25	873	38	14.924824481344
25	874	39	15.171498585891
25	875	40	14.760818061049
23	12	11	419.9
23	13	12	417.70054870686
23	14	13	413.65976607988
23	15	14	407.1094256982
23	16	15	399.08671115262
23	17	16	388.63720927883
23	299	17	376.59067020935
23	300	18	362.43200139359
23	301	19	346.93128904612
23	302	20	332.13424447548
23	303	21	316.54673809178
23	304	22	301.36730284103
23	305	23	285.36666756415
23	306	24	270.16784386468
23	307	25	255.2077296403
23	308	26	239.4055743194
23	309	27	224.41293430168
23	310	28	209.0112106713
23	311	29	193.51159676862
23	312	30	177.78644855501
23	313	31	161.9792428482
23	314	32	146.97751087361
23	315	33	131.46262228655
23	316	34	116.48503135222
23	317	35	101.10268202482
23	318	36	85.834833679579
23	872	37	70.147629960575
23	873	38	55.222805479231
23	874	39	40.05130689334
23	875	40	25.290488832291
22	12	11	226.6
22	13	12	226.6
22	14	13	226.6
22	15	14	226.6
22	16	15	226.6
22	17	16	226.6
22	299	17	226.6
22	300	18	226.6
22	301	19	226.6
22	302	20	226.6
22	303	21	226.6
22	304	22	226.6
22	305	23	226.6
22	306	24	226.6
22	307	25	226.6
22	308	26	226.6
22	309	27	226.6
22	310	28	226.6
22	311	29	226.6
22	312	30	226.6
22	313	31	226.6
22	314	32	226.6
22	315	33	226.6
22	316	34	226.6
22	317	35	226.6
22	318	36	226.6
22	872	37	226.6
22	873	38	226.6
22	874	39	226.6
22	875	40	226.6
vector 80 smartjunctionScenario.node[16].veinsmobility posx ETV
vector 81 smartjunctionScenario.node[16].veinsmobility posy ETV
vector 82 smartjunctionScenario.node[17].veinsmobility posx ETV
vector 83 smartjunctionScenario.node[17].veinsmobility posy ETV
vector 84 smartjunctionScenario.node[16].veinsmobility speed ETV
vector 85 smartjunctionScenario.node[17].veinsmobility speed ETV
vector 86 smartjunctionScenario.node[16].veinsmobility acceleration ETV
vector 87 smartjunctionScenario.node[16].veinsmobility co2emission ETV
vector 88 smartjunctionScenario.node[17].veinsmobility acceleration ETV
vector 89 smartjunctionScenario.node[17].veinsmobility co2emission ETV
17	9	8	3.533626644092
17	10	9	5.5243127864924
17	11	10	5.1176048798103
17	12	11	6.926825774658
17	13	12	9.3618044991818
17	14	13	5.2920761944857
17	15	14	0.973
17	16	15	1.1883874872134
17	17	16	6.2193619819676
17	299	17	1.1565330061628
17	300	18	1.4110110645225
17	301	19	0.973
17	302	20	1.770245631461
17	303	21	0.973
17	304	22	0.973
17	305	23	0.973
17	306	24	0.973
17	307	25	0.973
17	308	26	0.973
17	309	27	1.1101892273623
17	310	28	1.8715159637135
17	311	29	2.5840150324952
17	312	30	3.0396744679944
17	313	31	5.313624742763
17	314	32	5.3416447212025
17	315	33	4.9970516289877
17	316	34	6.6312523248313
17	317	35	7.4987146794027
17	318	36	0.973
17	872	37	2.9474735337825
17	873	38	5.0776073830223
17	874	39	0.973
17	875	40	0.973
17	876	41	3.4214305776697
17	877	42	3.969649326249
17	878	43	2.367418756711
17	879	44	0.973
17	880	45	5.8015737034706
16	9	8	2.065569831524
16	10	9	2.4474117824575
16	11	10	1.7095406298526
16	12	11	2.0311056165723
16	13	12	2.3722520300886
16	14	13	0.96887685311578
16	15	14	-0.63660983538721
16	16	15	-0.24082695604302
16	17	16	1.2061094931327
16	299	17	-0.26173859988339
16	300	18	-0.1832857829053
16	301	19	-0.49242001746316
16	302	20	-0.061541884741745
16	303	21	-0.27205727333203
16	304	22	-2.5445929497636
16	305	23	-3.9868512351066
16	306	24	-3.8550058150897
16	307	25	-2.480823078209
16	308	26	-0.1148100558898
16	309	27	-0.024157141663418
16	310	28	1.6774529649643
16	311	29	1.6379354011733
16	312	30	1.4645966956159
16	313	31	2.2576904759509
16	314	32	1.7640195989516
16	315	33	1.3486098427093
16	316	34	1.6816612795228
16	317	35	1.6895743961782
16	318	36	-0.42551953641232
16	872	37	0.29996536099352
16	873	38	0.87496775421314
16	874	39	-0.54161214595661
16	875	40	-0.71064037887845
16	876	41	0.44258065535687
16	877	42	0.56973524466157
16	878	43	0.092622942430898
16	879	44	-1.0028937787749
16	880	45	1.0916558734141
14	8	7	2.3583153906511
14	9	8	4.4238852221752
14	10	9	6.8712970046327
14	11	10	8.5808376344852
14	12	11	10.611943251058
14	13	12	12.984195281146
14	14	13	13.953072134262
14	15	14	13.316462298875
14	16	15	13.075635342832
14	17	16	14.281744835964
14	299	17	14.020006236081
14	300	18	13.836720453176
14	301	19	13.344300435712
14	302	20	13.282758550971
14	303	21	13.010701277639
14	304	22	10.466108327875
14	305	23	6.4792570927686
14	306	24	2.6242512776789
14	307	25	0.14342819946991
14	308	26	0.028618143580106
14	309	27	0.0044610019166873
14	310	28	1.681913966881
14	311	29	3.3198493680543
14	312	30	4.7844460636702
14	313	31	7.0421365396212
14	314	32	8.8061561385727
14	315	33	10.154765981282
14	316	34	11.836427260805
14	317	35	13.526001656983
14	318	36	13.100482120571
14	872	37	13.400447481564
14	873	38	14.275415235777
14	874	39	13.733803089821
14	875	40	13.023162710942
14	876	41	13.465743366299
14	877	42	14.035478610961
14	878	43	14.128101553392
14	879	44	13.125207774617
14	880	45	14.216863648031
11	7	6	226.6
11	8	7	226.6
11	9	8	226.6
11	10	9	226.6
11	11	10	226.6
11	12	11	226.6
11	13	12	226.6
11	14	13	226.6
11	15	14	226.6
11	16	15	226.6
11	17	16	226.6
11	299	17	226.6
11	300	18	226.6
11	301	19	226.6
11	302	20	226.6
11	303	21	226.6
11	304	22	226.6
11	305	23	226.6
11	306	24	226.6
11	307	25	226.6
11	308	26	226.6
11	309	27	226.6
11	310	28	226.6
11	311	29	226.6
11	312	30	226.6
11	313	31	226.6
11	314	32	226.6
11	315	33	226.6
11	316	34	226.6
11	317	35	226.6
11	318	36	226.6
11	872	37	226.6
11	873	38	226.6
11	874	39	226.6
11	875	40	226.6
11	876	41	226.6
11	877	42	226.6
11	878	43	226.6
11	879	44	226.6
11	880	45	226.6
10	7	6	30.1
10	8	7	32.458315390651
10	9	8	36.882200612826
10	10	9	43.753497617459
10	11	10	52.334335251944
10	12	11	62.946278503002
10	13	12	75.930473784148
10	14	13	89.88354591841
10	15	14	103.20000821728
10	16	15	116.27564356012
10	17	16	130.45738839608
10	299	17	144.47739463216
10	300	18	158.31411508534
10	301	19	171.65841552105
10	302	20	184.94117407202
10	303	21	197.95187534966
10	304	22	208.41798367753
10	305	23	214.8972407703
10	306	24	217.52149204798
10	307	25	217.66492024745
10	308	26	217.69353839103
10	309	27	217.69799939295
10	310	28	219.37991335983
10	311	29	222.69976272788
10	312	30	227.48420879155
10	313	31	234.52634533117
10	314	32	243.33250146975
10	315	33	253.48726745103
10	316	34	265.32369471183
10	317	35	278.84969636882
10	318	36	291.95017848939
10	872	37	305.35062597095
10	873	38	319.62604120673
10	874	39	333.25984429655
10	875	40	346.28300700749
10	876	41	359.74875037379
10	877	42	373.78422898475
10	878	43	387.91233053814
10	879	44	401.03753831276
10	880	45	415.25440196079
vector 90 smartjunctionScenario.node[18].veinsmobility posx ETV
vector 91 smartjunctionScenario.node[18].veinsmobility posy ETV
vector 92 smartjunctionScenario.node[19].veinsmobility posx ETV
vector 93 smartjunctionScenario.node[19].veinsmobility posy ETV
vector 94 smartjunctionScenario.node[18].veinsmobility speed ETV
vector 95 smartjunctionScenario.node[19].veinsmobility speed ETV
vector 96 smartjunctionScenario.node[18].veinsmobility acceleration ETV
vector 97 smartjunctionScenario.node[18].veinsmobility co2emission ETV
vector 98 smartjunctionScenario.node[19].veinsmobility acceleration ETV
vector 99 smartjunctionScenario.node[19].veinsmobility co2emission ETV
27	14	13	3.3550764804283
27	15	14	4.4654495472424
27	16	15	6.6214064160086
27	17	16	6.8596273172592
27	299	17	4.6750421498488
27	300	18	2.2857801752436
27	301	19	0.973
27	302	20	1.6137386537624
27	303	21	2.9293069698385
27	304	22	2.0463396872888
27	305	23	0.973
27	306	24	3.1244591585579
27	307	25	0.973
27	308	26	3.9393603218406
27	309	27	0.973
27	310	28	0.973
27	311	29	0.973
27	312	30	0.973
27	313	31	0.973
27	314	32	4.5193766653458
27	315	33	6.979323505566
27	316	34	6.6774140759222
27	317	35	2.1152983040733
27	318	36	4.6806763240378
27	872	37	0.973
27	873	38	2.4839074208601
27	874	39	2.880800496287
27	875	40	1.6979321357484
27	876	41	0.973
27	877	42	2.5702007840887
27	878	43	2.3145780524879
27	879	44	0.973
27	880	45	1.7049757916378
27	881	46	2.127503402808
27	882	47	2.8713349371265
27	883	48	3.4972578732108
27	884	49	1.9485237301046
26	14	13	2.1227955877548
26	15	14	2.0769245595904
26	16	15	2.4530470820144
26	17	16	2.0188599040965
26	299	17	1.0264654798437
26	300	18	0.16267316706944
26	301	19	-0.26143673637416
26	302	20	-0.066862981440499
26	303	21	0.38646970528644
26	304	22	0.073177106515505
26	305	23	-0.40683715499472
26	306	24	0.44732194188982
26	307	25	-0.37093755537644
26	308	26	0.7015537727857
26	309	27	-0.83751516307239
26	310	28	-0.50899362800618
26	311	29	-4.0463164468366
26	312	30	-1.5525942570615
26	313	31	-0.79394989513033
26	314	32	1.970039661671
26	315	33	2.4876354420092
26	316	34	1.8851726780756
26	317	35	0.13364567745607
26	318	36	0.98370102224872
26	872	37	-0.45582728949375
26	873	38	0.23270541736856
26	874	39	0.35159251396544
26	875	40	-0.053017298202031
26	876	41	-0.47725526094437
26	877	42	0.25897826964501
26	878	43	0.16203016371001
26	879	44	-0.90712434626184
26	880	45	-0.023536024522036
26	881	46	0.1296003931202
26	882	47	0.38083361694589
26	883	48	0.5607707120711
26	884	49	0.02960476372391
24	13	12	1.8769018705236
24	14	13	3.9996974582784
24	15	14	6.0766220178688
24	16	15	8.5296690998832
24	17	16	10.54852900398
24	299	17	11.574994483823
24	300	18	11.737667650893
24	301	19	11.476230914519
24	302	20	11.409367933078
24	303	21	11.795837638365
24	304	22	11.86901474488
24	305	23	11.462177589885
24	306	24	11.909499531775
24	307	25	11.538561976399
24	308	26	12.240115749184
24	309	27	11.402600586112
24	310	28	10.893606958106
24	311	29	6.8472905112692
24	312	30	5.2946962542077
24	313	31	4.5007463590774
24	314	32	6.4707860207484
24	315	33	8.9584214627576
24	316	34	10.843594140833
24	317	35	10.977239818289
24	318	36	11.960940840538
24	872	37	11.505113551044
24	873	38	11.737818968413
24	874	39	12.089411482378
24	875	40	12.036394184176
24	876	41	11.559138923232
24	877	42	11.818117192877
24	878	43	11.980147356587
24	879	44	11.073023010325
24	880	45	11.049486985803
24	881	46	11.179087378923
24	882	47	11.559920995869
24	883	48	12.12069170794
24	884	49	12.150296471664
21	12	11	226.6
21	13	12	226.6
21	14	13	226.6
21	15	14	226.6
21	16	15	226.6
21	17	16	226.6
21	299	17	226.6
21	300	18	226.6
21	301	19	226.6
21	302	20	226.6
21	303	21	226.6
21	304	22	226.6
21	305	23	226.6
21	306	24	226.6
21	307	25	226.6
21	308	26	226.6
21	309	27	226.6
21	310	28	226.6
21	311	29	226.6
21	312	30	226.6
21	313	31	226.6
21	314	32	226.6
21	315	33	226.6
21	316	34	226.6
21	317	35	226.6
21	318	36	226.6
21	872	37	226.6
21	873	38	226.6
21	874	39	226.6
21	875	40	226.6
21	876	41	226.6
21	877	42	226.6
21	878	43	226.6
21	879	44	226.6
21	880	45	226.6
21	881	46	226.6
21	882	47	226.6
21	883	48	226.6
21	884	49	226.6
20	12	11	30.1
20	13	12	31.976901870524
20	14	13	35.976599328802
20	15	14	42.053221346671
20	16	15	50.582890446554
20	17	16	61.131419450534
20	299	17	72.706413934357
20	300	18	84.44408158525
20	301	19	95.920312499768
20	302	20	107.32968043285
20	303	21	119.12551807121
20	304	22	130.89453281609
20	305	23	142.35671040598
20	306	24	154.26620993775
20	307	25	165.80477191415
20	308	26	178.04488766333
20	309	27	189.44748824945
20	310	28	200.34109520755
20	311	29	207.18838571882
20	312	30	212.48308197303
20	313	31	216.98382833211
20	314	32	223.45461435285
20	315	33	232.41303581561
20	316	34	243.25662995645
20	317	35	254.23386977474
20	318	36	266.19481061527
20	872	37	277.69992416632
20	873	38	289.43774313473
20	874	39	301.52715461711
20	875	40	313.56354880128
20	876	41	325.02268772452
20	877	42	336.84080491739
20	878	43	348.82095227398
20	879	44	359.89397528431
20	880	45	370.94346227011
20	881	46	382.12254964903
20	882	47	393.6824706449
20	883	48	405.80316235284
20	884	49	417.9534588245
vector 100 smartjunctionScenario.node[20].veinsmobility posx ETV
vector 101 smartjunctionScenario.node[20].veinsmobility posy ETV
vector 102 smartjunctionScenario.node[21].veinsmobility posx ETV
vector 103 smartjunctionScenario.node[21].veinsmobility posy ETV
vector 104 smartjunctionScenario.node[20].veinsmobility speed ETV
vector 105 smartjunctionScenario.node[21].veinsmobility speed ETV
vector 106 smartjunctionScenario.node[20].veinsmobility acceleration ETV
vector 107 smartjunctionScenario.node[20].veinsmobility co2emission ETV
vector 108 smartjunctionScenario.node[21].veinsmobility acceleration ETV
vector 109 smartjunctionScenario.node[21].veinsmobility co2emission ETV
vector 110 smartjunctionScenario.node[22].veinsmobility posx ETV
vector 111 smartjunctionScenario.node[22].veinsmobility posy ETV
vector 112 smartjunctionScenario.node[23].veinsmobility posx ETV
vector 113 smartjunctionScenario.node[23].veinsmobility posy ETV
vector 114 smartjunctionScenario.node[22].veinsmobility speed ETV
vector 115 smartjunctionScenario.node[23].veinsmobility speed ETV
39	300	18	3.3634943646909
39	301	19	3.4730135359687
39	302	20	4.3881638323812
39	303	21	4.4173166484209
39	304	22	4.3088473947395
39	305	23	1.9406377478454
39	306	24	2.3717462406001
39	307	25	0.973
39	308	26	0.973
39	309	27	1.4916413390103
39	310	28	1.6817346066373
39	311	29	3.7658114655921
39	312	30	0.973
39	313	31	1.854925559042
39	314	32	1.6089963556852
39	315	33	2.4923123621778
39	316	34	0.973
39	317	35	3.4618204269771
39	318	36	0.973
39	872	37	4.7432951155341
39	873	38	0.973
39	874	39	1.920936067296
39	875	40	3.344536209656
39	876	41	0.973
39	877	42	1.9713997376382
39	878	43	0.973
39	879	44	2.4731223673683
39	880	45	0.973
39	881	46	1.5953092677096
39	882	47	3.4894036525877
39	883	48	1.214645677412
39	884	49	2.6475967395617
39	885	50	0.973
39	886	51	4.1596699570692
39	887	52	0.973
39	888	53	3.9746683307565
39	889	54	1.4141845601261
39	890	55	1.4295232727695
39	891	56	0.973
39	1821	57	3.7544954980594
38	300	18	1.9552915811772
38	301	19	1.4771904644789
38	302	20	1.6133730093017
38	303	21	1.3383693411713
38	304	22	1.1085609967737
38	305	23	0.10748683670536
38	306	24	0.27093650922179
38	307	25	-0.36247772839852
38	308	26	-0.39763008626178
38	309	27	-0.065912478067911
38	310	28	0.01729069040157
38	311	29	0.83310183861759
38	312	30	-0.66325351616833
38	313	31	0.08307712774258
38	314	32	-0.02165982723236
38	315	33	0.33524352530949
38	316	34	-0.50545900354627
38	317	35	0.71588153541088
38	318	36	-0.76831265597139
38	872	37	1.1767118701711
38	873	38	-0.74635471694637
38	874	39	0.099267505807802
38	875	40	0.63142268329393
38	876	41	-0.95442967428826
38	877	42	0.12886185280513
38	878	43	-0.28716475677211
38	879	44	0.33843295355327
38	880	45	-0.2586442497326
38	881	46	-0.024074060330168
38	882	47	0.72127639821265
38	883	48	-0.19590363116004
38	884	49	0.36929077790119
38	885	50	-0.83533218614757
38	886	51	0.95559055861086
38	887	52	-1.1268349415623
38	888	53	0.90841697198339
38	889	54	-0.11676771210041
38	890	55	-0.10830909251236
38	891	56	-0.78230471033603
38	1821	57	0.83895934815519
35	299	17	2.3684379417915
35	300	18	4.3237295229686
35	301	19	5.8009199874476
35	302	20	7.4142929967493
35	303	21	8.7526623379206
35	304	22	9.8612233346943
35	305	23	9.9687101713996
35	306	24	10.239646680621
35	307	25	9.8771689522229
35	308	26	9.4795388659611
35	309	27	9.4136263878932
35	310	28	9.4309170782948
35	311	29	10.264018916912
35	312	30	9.600765400744
35	313	31	9.6838425284866
35	314	32	9.6621827012543
35	315	33	9.9974262265638
35	316	34	9.4919672230175
35	317	35	10.207848758428
35	318	36	9.439536102457
35	872	37	10.616247972628
35	873	38	9.8698932556817
35	874	39	9.9691607614895
35	875	40	10.600583444783
35	876	41	9.6461537704952
35	877	42	9.7750156233003
35	878	43	9.4878508665282
35	879	44	9.8262838200815
35	880	45	9.5676395703489
35	881	46	9.5435655100187
35	882	47	10.264841908231
35	883	48	10.068938277071
35	884	49	10.438229054973
35	885	50	9.602896868825
35	886	51	10.558487427436
35	887	52	9.4316524858736
35	888	53	10.340069457857
35	889	54	10.223301745757
35	890	55	10.114992653244
35	891	56	9.3326879429082
35	1821	57	10.171647291063
33	17	16	419.9
33	299	17	417.53156205821
33	300	18	413.20783253524
33	301	19	407.40691254779
33	302	20	399.99261955104
33	303	21	391.23995721312
33	304	22	381.37873387843
33	305	23	371.41002370703
33	306	24	361.17037702641
33	307	25	351.29320807418
33	308	26	341.81366920822
33	309	27	332.40004282033
33	310	28	323.06912574203
33	311	29	312.80510682512
33	312	30	303.20434142438
33	313	31	293.52049889589
33	314	32	283.85831619464
33	315	33	273.86088996807
33	316	34	264.36892274506
33	317	35	254.16107398663
33	318	36	244.72153788417
33	872	37	234.10528991154
33	873	38	224.23539665586
33	874	39	214.26623589437
33	875	40	203.66565244959
33	876	41	194.01949867909
33	877	42	184.24448305579
33	878	43	174.75663218926
33	879	44	164.93034836918
33	880	45	155.36270879883
33	881	46	145.81914328882
33	882	47	135.55430138058
33	883	48	125.48536310351
33	884	49	115.14713404854
33	885	50	105.54423717972
33	886	51	94.985749752279
33	887	52	85.554097266406
33	888	53	75.214027808549
33	889	54	64.990726062792
33	890	55	54.875733409548
33	891	56	45.54304546664
33	1821	57	35.371398175577
32	17	16	226.6
32	299	17	226.6
32	300	18	226.6
32	301	19	226.6
32	302	20	226.6
32	303	21	226.6
32	304	22	226.6
32	305	23	226.6
32	306	24	226.6
32	307	25	226.6
32	308	26	226.6
32	309	27	226.6
32	310	28	226.6
32	311	29	226.6
32	312	30	226.6
32	313	31	226.6
32	314	32	226.6
32	315	33	226.6
32	316	34	226.6
32	317	35	226.6
32	318	36	226.6
32	872	37	226.6
32	873	38	226.6
32	874	39	226.6
32	875	40	226.6
32	876	41	226.6
32	877	42	226.6
32	878	43	226.6
32	879	44	226.6
32	880	45	226.6
32	881	46	226.6
32	882	47	226.6
32	883	48	226.6
32	884	49	226.6
32	885	50	226.6
32	886	51	226.6
32	887	52	226.6
32	888	53	226.6
32	889	54	226.6
32	890	55	226.6
32	891	56	226.6
32	1821	57	226.6
vector 116 smartjunctionScenario.node[22].veinsmobility acceleration ETV
vector 117 smartjunctionScenario.node[22].veinsmobility co2emission ETV
vector 118 smartjunctionScenario.node[23].veinsmobility acceleration ETV
vector 119 smartjunctionScenario.node[23].veinsmobility co2emission ETV
49	305	23	3.1736312546697
49	306	24	4.2894149021984
49	307	25	4.5128961977144
49	308	26	6.919421989119
49	309	27	5.7976548236991
49	310	28	9.1535938569946
49	311	29	10.924783450329
49	312	30	3.1324482079857
49	313	31	0.973
49	314	32	0.973
49	315	33	0.973
49	316	34	1.5313137945207
49	317	35	1.9787216799114
49	318	36	1.8857294342554
49	872	37	0.973
49	873	38	6.8665697158384
49	874	39	0.973
49	875	40	0.973
49	876	41	5.048668495218
49	877	42	0.973
49	878	43	2.1548534292551
49	879	44	2.7420392525278
49	880	45	2.1517183577978
49	881	46	0.973
49	882	47	2.4007969660415
49	883	48	5.4841926621141
49	884	49	0.973
49	885	50	2.8121413142193
49	886	51	0.973
49	887	52	1.2767497740771
49	888	53	0.973
49	889	54	4.9076853763905
49	890	55	3.2856761158252
49	891	56	1.4379260236211
49	1821	57	0.973
49	1822	58	2.5572130042473
49	1823	59	7.8641193484282
48	305	23	2.1004749592859
48	306	24	2.0686661699787
48	307	25	1.6726314516272
48	308	26	2.2481292981422
48	309	27	1.4896662708372
48	310	28	2.2194151241332
48	311	29	2.2976288788253
48	312	30	0.22897619282851
48	313	31	-1.6797221209794
48	314	32	-2.0869407332918
48	315	33	-0.93851093905544
48	316	34	-0.090861755164244
48	317	35	0.073018006990113
48	318	36	0.037339854937606
48	872	37	-1.9415985679806
48	873	38	1.885165535746
48	874	39	-0.95999762865632
48	875	40	-0.80656234478678
48	876	41	1.2816093946738
48	877	42	-1.450316453427
48	878	43	0.22251416607454
48	879	44	0.44417329995379
48	880	45	0.18791385722314
48	881	46	-1.0630117806624
48	882	47	0.33648568049421
48	883	48	1.432197038619
48	884	49	-0.54432259628912
48	885	50	0.41647704989718
48	886	51	-0.75546719082741
48	887	52	-0.16596596976815
48	888	53	-0.77131732464817
48	889	54	1.2904455896153
48	890	55	0.58456635182029
48	891	56	-0.11804242679536
48	1821	57	-1.2517853135207
48	1822	58	0.37046005594942
48	1823	59	2.0874641896226
45	304	22	1.6129066847032
45	305	23	3.7133816439891
45	306	24	5.7820478139678
45	307	25	7.454679265595
45	308	26	9.7028085637372
45	309	27	11.192474834574
45	310	28	13.411889958708
45	311	29	15.709518837533
45	312	30	15.938495030361
45	313	31	14.258772909382
45	314	32	12.17183217609
45	315	33	11.233321237035
45	316	34	11.142459481871
45	317	35	11.215477488861
45	318	36	11.252817343798
45	872	37	9.3112187758177
45	873	38	11.196384311564
45	874	39	10.236386682907
45	875	40	9.4298243381206
45	876	41	10.711433732794
45	877	42	9.2611172793674
45	878	43	9.4836314454419
45	879	44	9.9278047453957
45	880	45	10.115718602619
45	881	46	9.0527068219565
45	882	47	9.3891925024507
45	883	48	10.82138954107
45	884	49	10.277066944781
45	885	50	10.693543994678
45	886	51	9.9380768038503
45	887	52	9.7721108340822
45	888	53	9.000793509434
45	889	54	10.291239099049
45	890	55	10.87580545087
45	891	56	10.757763024074
45	1821	57	9.5059777105536
45	1822	58	9.876437766503
45	1823	59	11.963901956126
43	303	21	419.9
43	304	22	418.2870933153
43	305	23	414.57371167131
43	306	24	408.79166385734
43	307	25	401.33698459174
43	308	26	391.63417602801
43	309	27	380.44170119343
43	310	28	367.02981123473
43	311	29	351.32029239719
43	312	30	335.38179736683
43	313	31	321.22302445745
43	314	32	309.05119228136
43	315	33	297.81787104432
43	316	34	286.67541156245
43	317	35	275.45993407359
43	318	36	264.20711672979
43	872	37	254.89589795398
43	873	38	243.69951364241
43	874	39	233.46312695951
43	875	40	224.03330262139
43	876	41	213.32186888859
43	877	42	204.06075160922
43	878	43	194.57712016378
43	879	44	184.64931541839
43	880	45	174.53359681577
43	881	46	165.48088999381
43	882	47	156.09169749136
43	883	48	145.27030795029
43	884	49	134.99324100551
43	885	50	124.39969701083
43	886	51	114.46162020698
43	887	52	104.6895093729
43	888	53	95.688715863465
43	889	54	85.397476764416
43	890	55	74.521671313546
43	891	56	63.763908289472
43	1821	57	54.257930578918
43	1822	58	44.381492812415
43	1823	59	32.41759085629
42	303	21	226.6
42	304	22	226.6
42	305	23	226.6
42	306	24	226.6
42	307	25	226.6
42	308	26	226.6
42	309	27	226.6
42	310	28	226.6
42	311	29	226.6
42	312	30	226.6
42	313	31	226.6
42	314	32	226.6
42	315	33	226.6
42	316	34	226.6
42	317	35	226.6
42	318	36	226.6
42	872	37	226.6
42	873	38	226.6
42	874	39	226.6
42	875	40	226.6
42	876	41	226.6
42	877	42	226.6
42	878	43	226.6
42	879	44	226.6
42	880	45	226.6
42	881	46	226.6
42	882	47	226.6
42	883	48	226.6
42	884	49	226.6
42	885	50	226.6
42	886	51	226.6
42	887	52	226.6
42	888	53	226.6
42	889	54	226.6
42	890	55	226.6
42	891	56	226.6
42	1821	57	226.6
42	1822	58	226.6
42	1823	59	226.6
vector 120 smartjunctionScenario.node[24].veinsmobility posx ETV
vector 121 smartjunctionScenario.node[24].veinsmobility posy ETV
vector 122 smartjunctionScenario.node[25].veinsmobility posx ETV
vector 123 smartjunctionScenario.node[25].veinsmobility posy ETV
59	310	28	2.4074842558999
59	311	29	3.6319727544207
59	312	30	5.6738409806319
59	313	31	6.7043943208679
59	314	32	6.1218889156299
59	315	33	6.5122583993038
59	316	34	0.973
59	317	35	3.7280102486161
59	318	36	0.973
59	872	37	0.973
59	873	38	3.1873192845739
59	874	39	2.7291021866459
59	875	40	1.9338474422551
59	876	41	0.973
59	877	42	1.6963369838829
59	878	43	2.0557429115099
59	879	44	4.9365958356064
59	880	45	0.973
59	881	46	3.7839276254447
59	882	47	0.973
59	883	48	3.645778499239
59	884	49	0.973
59	885	50	2.8441325963837
59	886	51	0.973
59	887	52	4.0104308237422
59	888	53	1.5799025647127
59	889	54	0.973
59	890	55	3.6598334078219
59	891	56	3.3180833821087
59	1821	57	0.973
59	1822	58	0.973
59	1823	59	0.973
59	1824	60	8.2424172459994
59	1825	61	4.7111530097787
58	310	28	1.6110171044245
58	311	29	1.9283309031976
58	312	30	2.3818135011941
58	313	31	2.2117000236409
58	314	32	1.6238879573066
58	315	33	1.5140049432611
58	316	34	-0.28761772743892
58	317	35	0.57694376958534
58	318	36	-0.31022752653807
58	872	37	-0.52374706971459
58	873	38	0.42880423464812
58	874	39	0.26321505911183
58	875	40	0.0047483096132055
58	876	41	-0.885794397071
58	877	42	-0.048535977629944
58	878	43	0.074617617973125
58	879	44	0.96823149709962
58	880	45	-0.34907760804053
58	881	46	0.57967116886284
58	882	47	-1.0776133435545
58	883	48	0.57303622586187
58	884	49	-0.41475320826285
58	885	50	0.31483877333812
58	886	51	-0.50561235114001
58	887	52	0.68615232184529
58	888	53	-0.10601103398949
58	889	54	-1.7652333582912
58	890	55	0.66982010156259
58	891	56	0.5081019898977
58	1821	57	-0.44628698916747
58	1822	58	-1.2594554148622
58	1823	59	-0.21523746157423
58	1824	60	2.1603064998519
58	1825	61	0.8734048891938
55	309	27	1.3559610384982
55	310	28	2.9669781429227
55	311	29	4.8953090461204
55	312	30	7.2771225473145
55	313	31	9.4888225709554
55	314	32	11.112710528262
55	315	33	12.626715471523
55	316	34	12.339097744084
55	317	35	12.916041513669
55	318	36	12.605813987131
55	872	37	12.082066917417
55	873	38	12.510871152065
55	874	39	12.774086211177
55	875	40	12.77883452079
55	876	41	11.893040123719
55	877	42	11.844504146089
55	878	43	11.919121764062
55	879	44	12.887353261162
55	880	45	12.538275653121
55	881	46	13.117946821984
55	882	47	12.04033347843
55	883	48	12.613369704291
55	884	49	12.198616496029
55	885	50	12.513455269367
55	886	51	12.007842918227
55	887	52	12.693995240072
55	888	53	12.587984206082
55	889	54	10.822750847791
55	890	55	11.492570949354
55	891	56	12.000672939252
55	1821	57	11.554385950084
55	1822	58	10.294930535222
55	1823	59	10.079693073648
55	1824	60	12.2399995735
55	1825	61	13.113404462693
53	308	26	419.9
53	309	27	418.5440389615
53	310	28	415.57706081858
53	311	29	410.68175177246
53	312	30	403.40462922514
53	313	31	393.91580665419
53	314	32	382.80309612593
53	315	33	370.1763806544
53	316	34	357.83728291032
53	317	35	344.92124139665
53	318	36	332.31542740952
53	872	37	320.3333604921
53	873	38	307.82248934004
53	874	39	295.04840312886
53	875	40	282.26956860807
53	876	41	270.37652848435
53	877	42	258.53202433826
53	878	43	246.6129025742
53	879	44	233.72554931304
53	880	45	221.18727365992
53	881	46	208.06932683793
53	882	47	196.0289933595
53	883	48	183.41562365521
53	884	49	171.21700715918
53	885	50	158.70355188982
53	886	51	146.69570897159
53	887	52	134.00171373152
53	888	53	121.51372952544
53	889	54	110.69097867765
53	890	55	99.198407728291
53	891	56	87.19773478904
53	1821	57	75.643348838956
53	1822	58	65.348418303734
53	1823	59	55.268725230086
53	1824	60	43.028725656586
53	1825	61	29.915321193893
52	308	26	226.6
52	309	27	226.6
52	310	28	226.6
52	311	29	226.6
52	312	30	226.6
52	313	31	226.6
52	314	32	226.6
52	315	33	226.6
52	316	34	226.6
52	317	35	226.6
52	318	36	226.6
52	872	37	226.6
52	873	38	226.6
52	874	39	226.6
52	875	40	226.6
52	876	41	226.6
52	877	42	226.6
52	878	43	226.6
52	879	44	226.6
52	880	45	226.6
52	881	46	226.6
52	882	47	226.6
52	883	48	226.6
52	884	49	226.6
52	885	50	226.6
52	886	51	226.6
52	887	52	226.6
52	888	53	226.6
52	889	54	226.6
52	890	55	226.6
52	891	56	226.6
52	1821	57	226.6
52	1822	58	226.6
52	1823	59	226.6
52	1824	60	226.6
52	1825	61	226.6
vector 124 smartjunctionScenario.node[24].veinsmobility speed ETV
vector 125 smartjunctionScenario.node[25].veinsmobility speed ETV
vector 126 smartjunctionScenario.node[24].veinsmobility acceleration ETV
vector 127 smartjunctionScenario.node[24].veinsmobility co2emission ETV
vector 128 smartjunctionScenario.node[25].veinsmobility acceleration ETV
vector 129 smartjunctionScenario.node[25].veinsmobility co2emission ETV
69	315	33	3.6392721124322
69	316	34	4.5345211544586
69	317	35	5.3482327038851
69	318	36	7.6621991312607
69	872	37	6.442871552198
69	873	38	3.7009652476132
69	874	39	1.4185010894974
69	875	40	4.4082819412812
69	876	41	0.973
69	877	42	2.1533597882392
69	878	43	3.6014097676516
69	879	44	0.973
69	880	45	3.0831140075035
69	881	46	2.1367220843441
69	882	47	1.1866371632741
69	883	48	3.5609833066706
69	884	49	0.973
69	885	50	5.129232168809
69	886	51	0.973
69	887	52	2.6665904495025
69	888	53	0.973
69	889	54	4.0691514252362
69	890	55	3.4737582913447
69	891	56	0.973
69	1821	57	2.2110559844221
69	1822	58	2.1680093148989
69	1823	59	5.3260980324475
69	1824	60	0.973
69	1825	61	0.973
69	1826	62	3.97387960827
69	1827	63	0.973
69	1828	64	1.4723925909442
68	315	33	2.1746236477979
68	316	34	2.0018175628036
68	317	35	1.8923211365938
68	318	36	2.3173788755899
68	872	37	1.5601711726515
68	873	38	0.58017051453978
68	874	39	-0.15939074952621
68	875	40	0.75630217990838
68	876	41	-0.45149377081543
68	877	42	0.069079204113223
68	878	43	0.49777823572513
68	879	44	-0.7689128334634
68	880	45	0.36123216273263
68	881	46	0.058549669361673
68	882	47	-0.23908330861013
68	883	48	0.4917626664741
68	884	49	-0.80758946095593
68	885	50	0.96247738995589
68	886	51	-0.54958663065918
68	887	52	0.2223167743301
68	888	53	-0.72224240817595
68	889	54	0.66759875763673
68	890	55	0.4503440284403
68	891	56	-1.1919642246561
68	1821	57	0.10506436405704
68	1822	58	0.087506048986688
68	1823	59	1.0140975186368
68	1824	60	-0.46358612328768
68	1825	61	-0.44006447333377
68	1826	62	0.62314147888683
68	1827	63	-0.76578548364341
68	1828	64	-0.13834994675126
65	314	32	2.2308740391396
65	315	33	4.4054976869375
65	316	34	6.4073152497411
65	317	35	8.2996363863349
65	318	36	10.617015261925
65	872	37	12.177186434576
65	873	38	12.757356949116
65	874	39	12.59796619959
65	875	40	13.354268379498
65	876	41	12.902774608683
65	877	42	12.971853812796
65	878	43	13.469632048521
65	879	44	12.700719215058
65	880	45	13.06195137779
65	881	46	13.120501047152
65	882	47	12.881417738542
65	883	48	13.373180405016
65	884	49	12.56559094406
65	885	50	13.528068334016
65	886	51	12.978481703357
65	887	52	13.200798477687
65	888	53	12.478556069511
65	889	54	13.146154827148
65	890	55	13.596498855588
65	891	56	12.404534630932
65	1821	57	12.509598994989
65	1822	58	12.597105043976
65	1823	59	13.611202562612
65	1824	60	13.147616439325
65	1825	61	12.707551965991
65	1826	62	13.330693444878
65	1827	63	12.564907961234
65	1828	64	12.426558014483
63	313	31	419.9
63	314	32	417.66912596086
63	315	33	413.26362827392
63	316	34	406.85631302418
63	317	35	398.55667663785
63	318	36	387.93966137592
63	872	37	375.76247494135
63	873	38	363.00511799223
63	874	39	350.40715179264
63	875	40	337.05288341314
63	876	41	324.25010880446
63	877	42	311.27825499166
63	878	43	297.80862294314
63	879	44	285.10790372808
63	880	45	272.04595235029
63	881	46	258.92545130314
63	882	47	246.0440335646
63	883	48	232.67085315958
63	884	49	220.10526221552
63	885	50	206.57719388151
63	886	51	193.59871217815
63	887	52	180.39791370046
63	888	53	167.91935763095
63	889	54	154.77320280381
63	890	55	141.17670394822
63	891	56	128.77216931729
63	1821	57	116.3625703223
63	1822	58	103.76546527832
63	1823	59	90.154262715708
63	1824	60	77.006646276384
63	1825	61	64.299094310393
63	1826	62	50.968400865515
63	1827	63	38.40349290428
63	1828	64	25.976934889797
62	313	31	226.6
62	314	32	226.6
62	315	33	226.6
62	316	34	226.6
62	317	35	226.6
62	318	36	226.6
62	872	37	226.6
62	873	38	226.6
62	874	39	226.6
62	875	40	226.6
62	876	41	226.6
62	877	42	226.6
62	878	43	226.6
62	879	44	226.6
62	880	45	226.6
62	881	46	226.6
62	882	47	226.6
62	883	48	226.6
62	884	49	226.6
62	885	50	226.6
62	886	51	226.6
62	887	52	226.6
62	888	53	226.6
62	889	54	226.6
62	890	55	226.6
62	891	56	226.6
62	1821	57	226.6
62	1822	58	226.6
62	1823	59	226.6
62	1824	60	226.6
62	1825	61	226.6
62	1826	62	226.6
62	1827	63	226.6
62	1828	64	226.6
vector 130 smartjunctionScenario.node[26].veinsmobility posx ETV
vector 131 smartjunctionScenario.node[26].veinsmobility posy ETV
vector 132 smartjunctionScenario.node[27].veinsmobility posx ETV
vector 133 smartjunctionScenario.node[27].veinsmobility posy ETV
vector 134 smartjunctionScenario.node[26].veinsmobility speed ETV
vector 135 smartjunctionScenario.node[27].veinsmobility speed ETV
vector 136 smartjunctionScenario.node[26].veinsmobility acceleration ETV
vector 137 smartjunctionScenario.node[26].veinsmobility co2emission ETV
vector 138 smartjunctionScenario.node[27].veinsmobility acceleration ETV
vector 139 smartjunctionScenario.node[27].veinsmobility co2emission ETV
37	300	18	3.7558491007082
37	301	19	4.2791700813748
37	302	20	5.932432221277
37	303	21	5.7692213207885
37	304	22	8.0756460273463
37	305	23	1.56828973494
37	306	24	3.2850239336056
37	307	25	1.7525376179689
37	308	26	2.4339616860934
37	309	27	0.973
37	310	28	2.2101261481231
37	311	29	3.3139711671339
37	312	30	3.0733006612431
37	313	31	0.973
37	314	32	2.2446724189192
37	315	33	0.973
37	316	34	0.973
37	317	35	0.973
37	318	36	0.973
37	872	37	0.973
37	873	38	1.1106680952559
37	874	39	1.1103709581519
37	875	40	1.1100416668902
37	876	41	1.1100201104599
37	877	42	1.1100162674005
37	878	43	0.973
37	879	44	0.973
37	880	45	0.973
37	881	46	0.973
37	882	47	0.973
37	883	48	0.973
37	884	49	0.973
37	885	50	0.973
37	886	51	1.839582102802
37	887	52	2.9153447299201
37	888	53	3.4567932164734
37	889	54	6.3742308844836
37	890	55	7.2106901384492
37	891	56	7.4147176685907
37	1821	57	1.4760405480343
37	1822	58	2.6491390808489
37	1823	59	4.779445864869
37	1824	60	0.973
37	1825	61	5.3836204564648
37	1826	62	1.5005309713612
37	1827	63	1.1670828419221
37	1828	64	1.1556509418379
37	1829	65	1.492761083976
37	1830	66	3.6241435867856
37	1831	67	1.1734333084595
37	1832	68	3.5251123126021
37	1833	69	1.3220511608391
36	300	18	2.389419370587
36	301	19	1.9230655725347
36	302	20	2.1761335349875
36	303	21	1.691057888791
36	304	22	2.1236870912602
36	305	23	-0.097888521234903
36	306	24	0.46154103791341
36	307	25	-0.045707154576666
36	308	26	0.17349041474517
36	309	27	-0.79884059228934
36	310	28	0.12661800393835
36	311	29	0.47583508261014
36	312	30	0.37286817147397
36	313	31	-0.55186663523782
36	314	32	0.12140178275298
36	315	33	-1.3534046523387
36	316	34	-4.5
36	317	35	-3.0048198072473
36	318	36	-3.0328081164481
36	872	37	-0.41483998610299
36	873	38	-0.054794259682768
36	874	39	-0.010935346148524
36	875	40	-0.0072380823046082
36	876	41	-0.00047826456377614
36	877	42	-8.0528154320825e-05
36	878	43	-0.00033735380560748
36	879	44	0
36	880	45	0
36	881	46	0
36	882	47	0
36	883	48	0
36	884	49	0
36	885	50	0
36	886	51	1.6422231189441
36	887	52	1.9061387947062
36	888	53	1.6593176549533
36	889	54	2.5810525485314
36	890	55	2.2761037147604
36	891	56	1.9263707525097
36	1821	57	-0.12611993149801
36	1822	58	0.26968485605903
36	1823	59	0.9025525870733
36	1824	60	-1.1196461289655
36	1825	61	1.0973907794571
36	1826	62	-0.13788823136128
36	1827	63	-0.24260861068033
36	1828	64	-0.24373010091949
36	1829	65	-0.12828722784761
36	1830	66	0.55104354161304
36	1831	67	-0.23983470040839
36	1832	68	0.50077653254848
36	1833	69	-0.19542858453933
34	299	17	1.838921348541
34	300	18	4.228340719128
34	301	19	6.1514062916627
34	302	20	8.3275398266502
34	303	21	10.018597715441
34	304	22	12.142284806701
34	305	23	12.044396285466
34	306	24	12.50593732338
34	307	25	12.460230168803
34	308	26	12.633720583548
34	309	27	11.834879991259
34	310	28	11.961497995197
34	311	29	12.437333077808
34	312	30	12.810201249281
34	313	31	12.258334614044
34	314	32	12.379736396797
34	315	33	11.026331744458
34	316	34	6.526331744458
34	317	35	3.5215119372107
34	318	36	0.48870382076259
34	872	37	0.073863834659604
34	873	38	0.019069574976836
34	874	39	0.0081342288283127
34	875	40	0.00089614652370445
34	876	41	0.00041788195992831
34	877	42	0.00033735380560748
34	878	43	0
34	879	44	0
34	880	45	0
34	881	46	0
34	882	47	0
34	883	48	0
34	884	49	0
34	885	50	0
34	886	51	1.6422231189441
34	887	52	3.5483619136503
34	888	53	5.2076795686036
34	889	54	7.7887321171351
34	890	55	10.064835831895
34	891	56	11.991206584405
34	1821	57	11.865086652907
34	1822	58	12.134771508966
34	1823	59	13.037324096039
34	1824	60	11.917677967074
34	1825	61	13.015068746531
34	1826	62	12.87718051517
34	1827	63	12.634571904489
34	1828	64	12.39084180357
34	1829	65	12.262554575722
34	1830	66	12.813598117335
34	1831	67	12.573763416927
34	1832	68	13.074539949475
34	1833	69	12.879111364936
31	17	16	226.6
31	299	17	226.6
31	300	18	226.6
31	301	19	226.6
31	302	20	226.6
31	303	21	226.6
31	304	22	226.6
31	305	23	226.6
31	306	24	226.6
31	307	25	226.6
31	308	26	226.6
31	309	27	226.6
31	310	28	226.6
31	311	29	226.6
31	312	30	226.6
31	313	31	226.6
31	314	32	226.6
31	315	33	226.6
31	316	34	226.6
31	317	35	226.6
31	318	36	226.6
31	872	37	226.6
31	873	38	226.6
31	874	39	226.6
31	875	40	226.6
31	876	41	226.6
31	877	42	226.6
31	878	43	226.6
31	879	44	226.6
31	880	45	226.6
31	881	46	226.6
31	882	47	226.6
31	883	48	226.6
31	884	49	226.6
31	885	50	226.6
31	886	51	226.6
31	887	52	226.6
31	888	53	226.6
31	889	54	226.6
31	890	55	226.6
31	891	56	226.6
31	1821	57	226.6
31	1822	58	226.6
31	1823	59	226.6
31	1824	60	226.6
31	1825	61	226.6
31	1826	62	226.6
31	1827	63	226.6
31	1828	64	226.6
31	1829	65	226.6
31	1830	66	226.6
31	1831	67	226.6
31	1832	68	226.6
31	1833	69	226.6
30	17	16	30.1
30	299	17	31.938921348541
30	300	18	36.167262067669
30	301	19	42.318668359332
30	302	20	50.646208185982
30	303	21	60.664805901423
30	304	22	72.807090708124
30	305	23	84.851486993591
30	306	24	97.357424316971
30	307	25	109.81765448577
30	308	26	122.45137506932
30	309	27	134.18625506058
30	310	28	146.14775305578
30	311	29	158.58508613359
30	312	30	171.39528738287
30	313	31	183.65362199691
30	314	32	196.03335839371
30	315	33	207.05969013817
30	316	34	213.58602188262
30	317	35	217.10753381983
30	318	36	217.5962376406
30	872	37	217.67010147526
30	873	38	217.68917105023
30	874	39	217.69730527906
30	875	40	217.69820142559
30	876	41	217.69861930755
30	877	42	217.69895666135
30	878	43	217.69895666135
30	879	44	217.69895666135
30	880	45	217.69895666135
30	881	46	217.69895666135
30	882	47	217.69895666135
30	883	48	217.69895666135
30	884	49	217.69895666135
30	885	50	217.69895666135
30	886	51	219.3411797803
30	887	52	222.88954169395
30	888	53	228.09722126255
30	889	54	235.88595337968
30	890	55	245.95078921158
30	891	56	257.94199579599
30	1821	57	269.80708244889
30	1822	58	281.94185395786
30	1823	59	294.9791780539
30	1824	60	306.89685602097
30	1825	61	319.9119247675
30	1826	62	332.68910528267
30	1827	63	345.32367718716
30	1828	64	357.71451899073
30	1829	65	369.97707356645
30	1830	66	382.79067168379
30	1831	67	395.36443510072
30	1832	68	408.43897505019
30	1833	69	421.31808641513
79	873	38	2.6505639747411
79	874	39	4.2032505964561
79	875	40	4.1745308712799
79	876	41	4.7070453406477
79	877	42	6.1056424106511
79	878	43	8.2096847248974
79	879	44	6.8258716200972
79	880	45	0.973
79	881	46	2.9054376519404
79	882	47	0.973
79	883	48	2.2220435150784
79	884	49	3.6680408203342
79	885	50	2.8072582461724
79	886	51	1.1149724162327
79	887	52	0.973
79	888	53	0.973
79	889	54	0.973
79	890	55	4.4561746958931
79	891	56	6.4944141585019
79	1821	57	6.1872906241954
79	1822	58	9.6533745344507
79	1823	59	6.0482417020822
79	1824	60	0.973
79	1825	61	1.5898551427427
79	1826	62	3.5262843263147
79	1827	63	2.0904775264038
79	1828	64	0.973
79	1829	65	4.094673178872
79	1830	66	0.973
79	1831	67	0.973
79	1832	68	4.7912564592932
79	1833	69	0.973
78	873	38	1.6152341621928
78	874	39	2.0821783869062
78	875	40	1.5580945410766
78	876	41	1.4968210770516
78	877	42	1.7514171056449
78	878	43	2.0971386368852
78	879	44	1.4285577756826
78	880	45	-0.51974439069163
78	881	46	0.27272477559745
78	882	47	-0.38736240498256
78	883	48	0.076495147054084
78	884	49	0.4919960825704
78	885	50	0.22383102041204
78	886	51	-0.27180189841893
78	887	52	-0.41529793329537
78	888	53	-4.1903795537645
78	889	54	-3.9238680371083
78	890	55	1.7539783115964
78	891	56	2.1889083944727
78	1821	57	1.6850906823296
78	1822	58	2.3959852399305
78	1823	59	1.1383607645392
78	1824	60	-0.56284750225023
78	1825	61	-0.1279219632037
78	1826	62	0.42957583819516
78	1827	63	0.0092575442278751
78	1828	64	-0.42719231045339
78	1829	65	0.58393604096491
78	1830	66	-0.48301175653469
78	1831	67	-0.47888222136535
78	1832	68	0.7993319615256
78	1833	69	-0.38365695604589
75	872	37	1.8968161821831
75	873	38	3.5120503443759
75	874	39	5.5942287312821
75	875	40	7.1523232723586
75	876	41	8.6491443494102
75	877	42	10.400561455055
75	878	43	12.49770009194
75	879	44	13.926257867623
75	880	45	13.406513476931
75	881	46	13.679238252529
75	882	47	13.291875847546
75	883	48	13.3683709946
75	884	49	13.860367077171
75	885	50	14.084198097583
75	886	51	13.812396199164
75	887	52	13.397098265868
75	888	53	9.206718712104
75	889	54	5.2828506749957
75	890	55	7.0368289865921
75	891	56	9.2257373810648
75	1821	57	10.910828063394
75	1822	58	13.306813303325
75	1823	59	14.445174067864
75	1824	60	13.882326565614
75	1825	61	13.75440460241
75	1826	62	14.183980440605
75	1827	63	14.193237984833
75	1828	64	13.76604567438
75	1829	65	14.349981715345
75	1830	66	13.86696995881
75	1831	67	13.388087737445
75	1832	68	14.18741969897
75	1833	69	13.803762742924
73	318	36	419.9
73	872	37	418.00318381782
73	873	38	414.49113347344
73	874	39	408.89690474216
73	875	40	401.7445814698
73	876	41	393.09543712039
73	877	42	382.69487566533
73	878	43	370.19717557339
73	879	44	356.27091770577
73	880	45	342.86440422884
73	881	46	329.18516597631
73	882	47	315.99329012877
73	883	48	302.62491913416
73	884	49	288.76455205699
73	885	50	274.68035395941
73	886	51	260.86795776025
73	887	52	247.47085949438
73	888	53	238.26414078228
73	889	54	232.98129010728
73	890	55	225.94446112069
73	891	56	216.71872373962
73	1821	57	205.80789567623
73	1822	58	192.5010823729
73	1823	59	178.05590830504
73	1824	60	164.17358173943
73	1825	61	150.41917713702
73	1826	62	136.23519669641
73	1827	63	122.14195871158
73	1828	64	108.3759130372
73	1829	65	94.025931321853
73	1830	66	80.158961363043
73	1831	67	66.770873625598
73	1832	68	52.583453926628
73	1833	69	38.779691183703
72	318	36	226.6
72	872	37	226.6
72	873	38	226.6
72	874	39	226.6
72	875	40	226.6
72	876	41	226.6
72	877	42	226.6
72	878	43	226.6
72	879	44	226.6
72	880	45	226.6
72	881	46	226.6
72	882	47	226.6
72	883	48	226.6
72	884	49	226.6
72	885	50	226.6
72	886	51	226.6
72	887	52	226.6
72	888	53	226.6
72	889	54	226.6
72	890	55	226.6
72	891	56	226.6
72	1821	57	226.6
72	1822	58	226.6
72	1823	59	226.6
72	1824	60	226.6
72	1825	61	226.6
72	1826	62	226.6
72	1827	63	226.6
72	1828	64	226.6
72	1829	65	226.6
72	1830	66	226.6
72	1831	67	226.6
72	1832	68	226.6
72	1833	69	226.6
vector 140 smartjunctionScenario.node[28].veinsmobility posx ETV
vector 141 smartjunctionScenario.node[28].veinsmobility posy ETV
vector 142 smartjunctionScenario.node[29].veinsmobility posx ETV
vector 143 smartjunctionScenario.node[29].veinsmobility posy ETV
vector 144 smartjunctionScenario.node[28].veinsmobility speed ETV
vector 145 smartjunctionScenario.node[29].veinsmobility speed ETV
47	305	23	3.3064733684742
47	306	24	4.7353435888214
47	307	25	3.9386239779631
47	308	26	6.0904143498011
47	309	27	6.5391209627813
47	310	28	6.449624934648
47	311	29	7.6358375875214
47	312	30	0.973
47	313	31	2.6934462352582
47	314	32	1.2330126642793
47	315	33	2.4568914635438
47	316	34	0.973
47	317	35	2.2081617000345
47	318	36	4.0924708765774
47	872	37	0.973
47	873	38	0.973
47	874	39	0.973
47	875	40	0.973
47	876	41	0.973
47	877	42	0.973
47	878	43	0.973
47	879	44	1.1101060898192
47	880	45	1.1100291344518
47	881	46	1.1100067352934
47	882	47	0.973
47	883	48	0.973
47	884	49	0.973
47	885	50	0.973
47	886	51	0.973
47	887	52	1.6533417035575
47	888	53	2.0158406260054
47	889	54	1.4395627622375
47	890	55	0.973
47	891	56	2.4320948887254
47	1821	57	3.7134352650142
47	1822	58	3.450886849025
47	1823	59	6.8488385397339
47	1824	60	6.5451435689241
47	1825	61	8.9909043966467
47	1826	62	7.2162255743994
47	1827	63	1.1308451901804
47	1828	64	4.0977626890544
47	1829	65	0.973
47	1830	66	4.8689486325093
47	1831	67	1.5823346898558
47	1832	68	0.973
47	1833	69	0.973
47	1834	70	6.3380957047665
47	1835	71	0.973
47	1836	72	0.973
46	305	23	2.266436697077
46	306	24	2.2990308515728
46	307	25	1.3737794754095
46	308	26	1.9791908181738
46	309	27	1.7786944993306
46	310	28	1.4954205871327
46	311	29	1.62404802146
46	312	30	-0.38263063016348
46	313	31	0.19195224849973
46	314	32	-0.23631420913152
46	315	33	0.12639125073329
46	316	34	-0.456154043274
46	317	35	0.065868467814289
46	318	36	0.5980706302194
46	872	37	-4.5
46	873	38	-3.8733930666901
46	874	39	-4.5
46	875	40	-0.77023327366011
46	876	41	-0.20454514580669
46	877	42	-0.17163132485234
46	878	43	-0.12022875467819
46	879	44	-0.0022617525973957
46	880	45	-0.0016154802551516
46	881	46	-0.00046891359171861
46	882	47	-0.00013994835728899
46	883	48	0
46	884	49	0
46	885	50	0
46	886	51	0
46	887	52	1.4044052040236
46	888	53	1.2260748212393
46	889	54	0.26834846301689
46	890	55	-2.4905587116826
46	891	56	2.0390872372547
46	1821	57	2.1443782452494
46	1822	58	1.4056288831402
46	1823	59	2.5558465809328
46	1824	60	1.9126975825522
46	1825	61	2.2991260389332
46	1826	62	1.4982355038575
46	1827	63	-0.26905289476272
46	1828	64	0.56976332003251
46	1829	65	-0.73974960667547
46	1830	66	0.7856053001713
46	1831	67	-0.14487628247589
46	1832	68	-0.76162203531712
46	1833	69	-0.35104244693648
46	1834	70	1.208419980295
46	1835	71	-0.30549220854882
46	1836	72	-0.83988270114642
44	304	22	1.4207329956349
44	305	23	3.6871696927119
44	306	24	5.9862005442847
44	307	25	7.3599800196942
44	308	26	9.339170837868
44	309	27	11.117865337199
44	310	28	12.613285924331
44	311	29	14.237333945791
44	312	30	13.854703315628
44	313	31	14.046655564128
44	314	32	13.810341354996
44	315	33	13.936732605729
44	316	34	13.480578562455
44	317	35	13.54644703027
44	318	36	14.144517660489
44	872	37	9.644517660489
44	873	38	5.7711245937989
44	874	39	1.2711245937989
44	875	40	0.50089132013878
44	876	41	0.29634617433209
44	877	42	0.12471484947975
44	878	43	0.0044860948015549
44	879	44	0.0022243422041592
44	880	45	0.0006088619490076
44	881	46	0.00013994835728899
44	882	47	0
44	883	48	0
44	884	49	0
44	885	50	0
44	886	51	0
44	887	52	1.4044052040236
44	888	53	2.6304800252629
44	889	54	2.8988284882798
44	890	55	0.40826977659718
44	891	56	2.4473570138519
44	1821	57	4.5917352591013
44	1822	58	5.9973641422415
44	1823	59	8.5532107231743
44	1824	60	10.465908305727
44	1825	61	12.76503434466
44	1826	62	14.263269848517
44	1827	63	13.994216953754
44	1828	64	14.563980273787
44	1829	65	13.824230667112
44	1830	66	14.609835967283
44	1831	67	14.464959684807
44	1832	68	13.70333764949
44	1833	69	13.352295202553
44	1834	70	14.560715182848
44	1835	71	14.2552229743
44	1836	72	13.415340273153
41	303	21	226.6
41	304	22	226.6
41	305	23	226.6
41	306	24	226.6
41	307	25	226.6
41	308	26	226.6
41	309	27	226.6
41	310	28	226.6
41	311	29	226.6
41	312	30	226.6
41	313	31	226.6
41	314	32	226.6
41	315	33	226.6
41	316	34	226.6
41	317	35	226.6
41	318	36	226.6
41	872	37	226.6
41	873	38	226.6
41	874	39	226.6
41	875	40	226.6
41	876	41	226.6
41	877	42	226.6
41	878	43	226.6
41	879	44	226.6
41	880	45	226.6
41	881	46	226.6
41	882	47	226.6
41	883	48	226.6
41	884	49	226.6
41	885	50	226.6
41	886	51	226.6
41	887	52	226.6
41	888	53	226.6
41	889	54	226.6
41	890	55	226.6
41	891	56	226.6
41	1821	57	226.6
41	1822	58	226.6
41	1823	59	226.6
41	1824	60	226.6
41	1825	61	226.6
41	1826	62	226.6
41	1827	63	226.6
41	1828	64	226.6
41	1829	65	226.6
41	1830	66	226.6
41	1831	67	226.6
41	1832	68	226.6
41	1833	69	226.6
41	1834	70	226.6
41	1835	71	226.6
41	1836	72	226.6
40	303	21	30.1
40	304	22	31.520732995635
40	305	23	35.207902688347
40	306	24	41.194103232631
40	307	25	48.554083252326
40	308	26	57.893254090194
40	309	27	69.011119427392
40	310	28	81.624405351724
40	311	29	95.861739297515
40	312	30	109.71644261314
40	313	31	123.76309817727
40	314	32	137.47343953227
40	315	33	151.410172138
40	316	34	164.89075070045
40	317	35	178.43719773072
40	318	36	192.58171539121
40	872	37	202.2262330517
40	873	38	207.9973576455
40	874	39	209.2684822393
40	875	40	209.76937355943
40	876	41	210.06571973377
40	877	42	210.19043458325
40	878	43	210.19492067805
40	879	44	210.19714502025
40	880	45	210.1977538822
40	881	46	210.19789383056
40	882	47	210.19789383056
40	883	48	210.19789383056
40	884	49	210.19789383056
40	885	50	210.19789383056
40	886	51	210.19789383056
40	887	52	211.60229903458
40	888	53	214.23277905985
40	889	54	217.13160754813
40	890	55	217.53987732472
40	891	56	219.98723433857
40	1821	57	224.57896959768
40	1822	58	230.57633373992
40	1823	59	239.12954446309
40	1824	60	249.59545276882
40	1825	61	262.36048711348
40	1826	62	276.62375696199
40	1827	63	290.61797391575
40	1828	64	305.18195418954
40	1829	65	319.00618485665
40	1830	66	333.51602082393
40	1831	67	347.98098050874
40	1832	68	361.68431815823
40	1833	69	375.03661336078
40	1834	70	389.59732854363
40	1835	71	403.85255151793
40	1836	72	417.26789179108
vector 146 smartjunctionScenario.node[28].veinsmobility acceleration ETV
vector 147 smartjunctionScenario.node[28].veinsmobility co2emission ETV
vector 148 smartjunctionScenario.node[29].veinsmobility acceleration ETV
vector 149 smartjunctionScenario.node[29].veinsmobility co2emission ETV
57	310	28	3.0162595957924
57	311	29	5.3570550779372
57	312	30	4.7628041383254
57	313	31	6.6755685422911
57	314	32	7.7878611326027
57	315	33	9.7956117728944
57	316	34	2.5048046857052
57	317	35	3.186122725012
57	318	36	3.1559971969247
57	872	37	1.878018649358
57	873	38	0.973
57	874	39	2.1899336611665
57	875	40	0.973
57	876	41	0.973
57	877	42	0.973
57	878	43	0.973
57	879	44	0.973
57	880	45	0.973
57	881	46	1.1101428404081
57	882	47	1.1100223069311
57	883	48	0.973
57	884	49	0.973
57	885	50	0.973
57	886	51	0.973
57	887	52	0.973
57	888	53	1.4857604369074
57	889	54	1.7212279839572
57	890	55	1.9098647073896
57	891	56	0.973
57	1821	57	2.821828428014
57	1822	58	3.0837010821607
57	1823	59	2.4279904744109
57	1824	60	3.7798266400961
57	1825	61	6.3839184948586
57	1826	62	4.9344650083905
57	1827	63	8.8343429347029
57	1828	64	10.312085276551
57	1829	65	0.973
57	1830	66	3.4578613018878
57	1831	67	5.4228685874142
57	1832	68	0.973
57	1833	69	0.973
57	1834	70	1.3323324696448
57	1835	71	4.1078286422515
57	1836	72	1.0791391754391
57	1837	73	0.973
57	1838	74	6.5776069316831
56	310	28	1.8732307409402
56	311	29	2.5552153061144
56	312	30	1.6640909610782
56	313	31	2.0526953918859
56	314	32	2.031984340027
56	315	33	2.2337890154682
56	316	34	0.11984274699695
56	317	35	0.2998606803827
56	318	36	0.27760658275802
56	872	37	-0.073103188467211
56	873	38	-0.5955632610945
56	874	39	0.031449790741316
56	875	40	-1.7087966529425
56	876	41	-4.4351640108782
56	877	42	-3.1606904330837
56	878	43	-3.4707945643143
56	879	44	-1.27626904552
56	880	45	-0.33873970160373
56	881	46	-0.0090260013169477
56	882	47	-0.0026322848134195
56	883	48	-0.00046857768852496
56	884	49	0
56	885	50	0
56	886	51	0
56	887	52	0
56	888	53	1.1523554254312
56	889	54	0.98480528386628
56	890	55	0.89198552513166
56	891	56	-2.4558264924391
56	1821	57	2.2832568573215
56	1822	58	1.6211282660878
56	1823	59	0.82115082415985
56	1824	60	1.4290706864558
56	1825	61	2.2159321203595
56	1826	62	1.3075482061598
56	1827	63	2.2942653491395
56	1828	64	2.289317723643
56	1829	65	-0.47475731567606
56	1830	66	0.37760714553297
56	1831	67	0.85437772343866
56	1832	68	-0.64770649468992
56	1833	69	-0.46697990933524
56	1834	70	-0.21348044290387
56	1835	71	0.55505361613383
56	1836	72	-0.28989642948379
56	1837	73	-0.6404340021536
56	1838	74	1.2145289341515
54	309	27	1.9314821653301
54	310	28	3.8047129062703
54	311	29	6.3599282123847
54	312	30	8.0240191734629
54	313	31	10.076714565349
54	314	32	12.108698905376
54	315	33	14.342487920844
54	316	34	14.462330667841
54	317	35	14.762191348224
54	318	36	15.039797930982
54	872	37	14.966694742514
54	873	38	14.37113148142
54	874	39	14.402581272161
54	875	40	12.693784619219
54	876	41	8.2586206083406
54	877	42	5.0979301752569
54	878	43	1.6271356109426
54	879	44	0.35086656542262
54	880	45	0.012126863818892
54	881	46	0.0031008625019445
54	882	47	0.00046857768852496
54	883	48	0
54	884	49	0
54	885	50	0
54	886	51	0
54	887	52	0
54	888	53	1.1523554254312
54	889	54	2.1371607092975
54	890	55	3.0291462344292
54	891	56	0.57331974199004
54	1821	57	2.8565765993115
54	1822	58	4.4777048653993
54	1823	59	5.2988556895592
54	1824	60	6.727926376015
54	1825	61	8.9438584963745
54	1826	62	10.251406702534
54	1827	63	12.545672051674
54	1828	64	14.834989775317
54	1829	65	14.360232459641
54	1830	66	14.737839605174
54	1831	67	15.592217328612
54	1832	68	14.944510833922
54	1833	69	14.477530924587
54	1834	70	14.264050481683
54	1835	71	14.819104097817
54	1836	72	14.529207668333
54	1837	73	13.88877366618
54	1838	74	15.103302600331
51	308	26	226.6
51	309	27	226.6
51	310	28	226.6
51	311	29	226.6
51	312	30	226.6
51	313	31	226.6
51	314	32	226.6
51	315	33	226.6
51	316	34	226.6
51	317	35	226.6
51	318	36	226.6
51	872	37	226.6
51	873	38	226.6
51	874	39	226.6
51	875	40	226.6
51	876	41	226.6
51	877	42	226.6
51	878	43	226.6
51	879	44	226.6
51	880	45	226.6
51	881	46	226.6
51	882	47	226.6
51	883	48	226.6
51	884	49	226.6
51	885	50	226.6
51	886	51	226.6
51	887	52	226.6
51	888	53	226.6
51	889	54	226.6
51	890	55	226.6
51	891	56	226.6
51	1821	57	226.6
51	1822	58	226.6
51	1823	59	226.6
51	1824	60	226.6
51	1825	61	226.6
51	1826	62	226.6
51	1827	63	226.6
51	1828	64	226.6
51	1829	65	226.6
51	1830	66	226.6
51	1831	67	226.6
51	1832	68	226.6
51	1833	69	226.6
51	1834	70	226.6
51	1835	71	226.6
51	1836	72	226.6
51	1837	73	226.6
51	1838	74	226.6
50	308	26	30.1
50	309	27	32.03148216533
50	310	28	35.8361950716
50	311	29	42.196123283985
50	312	30	50.220142457448
50	313	31	60.296857022797
50	314	32	72.405555928173
50	315	33	86.748043849017
50	316	34	101.21037451686
50	317	35	115.97256586508
50	318	36	130.91236379606
50	872	37	145.87905853858
50	873	38	160.25019002
50	874	39	174.65277129216
50	875	40	187.34655591138
50	876	41	195.60517651972
50	877	42	200.70310669497
50	878	43	202.33024230592
50	879	44	202.68110887134
50	880	45	202.69323573516
50	881	46	202.69633659766
50	882	47	202.69680517535
50	883	48	202.69680517535
50	884	49	202.69680517535
50	885	50	202.69680517535
50	886	51	202.69680517535
50	887	52	202.69680517535
50	888	53	203.84916060078
50	889	54	205.98632131008
50	890	55	209.01546754451
50	891	56	209.5887872865
50	1821	57	212.44536388581
50	1822	58	216.92306875121
50	1823	59	222.22192444077
50	1824	60	228.94985081678
50	1825	61	237.89370931316
50	1826	62	248.14511601569
50	1827	63	260.69078806736
50	1828	64	275.52577784268
50	1829	65	289.88601030232
50	1830	66	304.6238499075
50	1831	67	320.21606723611
50	1832	68	335.06057807003
50	1833	69	349.53810899462
50	1834	70	363.8021594763
50	1835	71	378.62126357412
50	1836	72	393.15047124245
50	1837	73	407.03924490863
50	1838	74	422.14254750896
vector 150 smartjunctionScenario.node[30].veinsmobility posx ETV
vector 151 smartjunctionScenario.node[30].veinsmobility posy ETV
vector 152 smartjunctionScenario.node[31].veinsmobility posx ETV
vector 153 smartjunctionScenario.node[31].veinsmobility posy ETV
vector 154 smartjunctionScenario.node[30].veinsmobility speed ETV
vector 155 smartjunctionScenario.node[31].veinsmobility speed ETV
vector 156 smartjunctionScenario.node[30].veinsmobility acceleration ETV
vector 157 smartjunctionScenario.node[30].veinsmobility co2emission ETV
vector 158 smartjunctionScenario.node[31].veinsmobility acceleration ETV
vector 159 smartjunctionScenario.node[31].veinsmobility co2emission ETV
67	315	33	3.6062113639361
67	316	34	4.9082334161071
67	317	35	5.0684986674203
67	318	36	6.3886461694731
67	872	37	8.4311522327699
67	873	38	1.9176815462051
67	874	39	1.7398654801861
67	875	40	1.1483275584707
67	876	41	1.528034566306
67	877	42	1.8546908899707
67	878	43	1.7588779704225
67	879	44	2.1686890331876
67	880	45	1.4911721779075
67	881	46	1.79128155864
67	882	47	0.973
67	883	48	0.973
67	884	49	0.973
67	885	50	0.973
67	886	51	0.973
67	887	52	1.111225537644
67	888	53	1.1100189887889
67	889	54	1.2646045632823
67	890	55	1.9436657745265
67	891	56	1.7719021785583
67	1821	57	0.973
67	1822	58	1.8613744606448
67	1823	59	3.245277639716
67	1824	60	2.7319167245681
67	1825	61	2.8120569610034
67	1826	62	6.9866085780167
67	1827	63	6.6917638932164
67	1828	64	5.0628799819854
67	1829	65	2.356644293288
67	1830	66	4.13632652177
67	1831	67	1.3199352338608
67	1832	68	2.0462002171206
67	1833	69	0.973
67	1834	70	0.973
67	1835	71	3.8017186153807
67	1836	72	2.733144445441
67	1837	73	0.973
67	1838	74	2.197996495603
67	1839	75	1.9764663646071
67	1840	76	2.8380303222019
67	2770	77	2.9009493625005
67	2771	78	1.2965760112506
66	315	33	2.4057223164942
66	316	34	2.3001212662784
66	317	35	1.8090113573242
66	318	36	1.9469212439144
66	872	37	2.2232543581631
66	873	38	0.015563584142942
66	874	39	-0.043450022907928
66	875	40	-0.24185430104844
66	876	41	-0.10798115404323
66	877	42	0.0060473521472897
66	878	43	-0.026683415984735
66	879	44	0.11234873661306
66	880	45	-0.12028880328871
66	881	46	-0.014672168693505
66	882	47	-2.7126907121984
66	883	48	-3.9013875260661
66	884	49	-4.4445000561189
66	885	50	-0.51367314099559
66	886	51	-0.21440791479097
66	887	52	-0.010440691459844
66	888	53	-0.026349718276434
66	889	54	0.7067519561788
66	890	55	1.4224178069464
66	891	56	0.75031493246546
66	1821	57	-1.7266233153478
66	1822	58	1.1508729100503
66	1823	59	1.9003316030898
66	1824	60	1.0660720188572
66	1825	61	0.92503376380686
66	1826	62	2.5565521409502
66	1827	63	1.9252701244968
66	1828	64	1.1348963232918
66	1829	65	0.17621957038067
66	1830	66	0.72554404346738
66	1831	67	-0.19072526404634
66	1832	68	0.048253656341695
66	1833	69	-0.34993040696718
66	1834	70	-0.56985129876993
66	1835	71	0.64975376934744
66	1836	72	0.2747394495178
66	1837	73	-0.43650597212836
66	1838	74	0.11081810556352
66	1839	75	0.034631413477474
66	1840	76	0.30839286388364
66	2770	77	0.31181830763817
66	2771	78	-0.2010962596396
64	314	32	1.5598427150864
64	315	33	3.9655650315806
64	316	34	6.2656862978591
64	317	35	8.0746976551833
64	318	36	10.021618899098
64	872	37	12.244873257261
64	873	38	12.260436841404
64	874	39	12.216986818496
64	875	40	11.975132517447
64	876	41	11.867151363404
64	877	42	11.873198715551
64	878	43	11.846515299567
64	879	44	11.95886403618
64	880	45	11.838575232891
64	881	46	11.823903064198
64	882	47	9.1112123519991
64	883	48	5.2098248259331
64	884	49	0.76532476981415
64	885	50	0.25165162881856
64	886	51	0.037243714027595
64	887	52	0.026803022567751
64	888	53	0.00045330429131783
64	889	54	0.70720526047012
64	890	55	2.1296230674165
64	891	56	2.879937999882
64	1821	57	1.1533146845342
64	1822	58	2.3041875945845
64	1823	59	4.2045191976743
64	1824	60	5.2705912165315
64	1825	61	6.1956249803384
64	1826	62	8.7521771212886
64	1827	63	10.677447245785
64	1828	64	11.812343569077
64	1829	65	11.988563139458
64	1830	66	12.714107182925
64	1831	67	12.523381918879
64	1832	68	12.571635575221
64	1833	69	12.221705168253
64	1834	70	11.651853869483
64	1835	71	12.301607638831
64	1836	72	12.576347088349
64	1837	73	12.13984111622
64	1838	74	12.250659221784
64	1839	75	12.285290635261
64	1840	76	12.593683499145
64	2770	77	12.905501806783
64	2771	78	12.704405547144
61	313	31	226.6
61	314	32	226.6
61	315	33	226.6
61	316	34	226.6
61	317	35	226.6
61	318	36	226.6
61	872	37	226.6
61	873	38	226.6
61	874	39	226.6
61	875	40	226.6
61	876	41	226.6
61	877	42	226.6
61	878	43	226.6
61	879	44	226.6
61	880	45	226.6
61	881	46	226.6
61	882	47	226.6
61	883	48	226.6
61	884	49	226.6
61	885	50	226.6
61	886	51	226.6
61	887	52	226.6
61	888	53	226.6
61	889	54	226.6
61	890	55	226.6
61	891	56	226.6
61	1821	57	226.6
61	1822	58	226.6
61	1823	59	226.6
61	1824	60	226.6
61	1825	61	226.6
61	1826	62	226.6
61	1827	63	226.6
61	1828	64	226.6
61	1829	65	226.6
61	1830	66	226.6
61	1831	67	226.6
61	1832	68	226.6
61	1833	69	226.6
61	1834	70	226.6
61	1835	71	226.6
61	1836	72	226.6
61	1837	73	226.6
61	1838	74	226.6
61	1839	75	226.6
61	1840	76	226.6
61	2770	77	226.6
61	2771	78	226.6
60	313	31	30.1
60	314	32	31.659842715086
60	315	33	35.625407746667
60	316	34	41.891094044526
60	317	35	49.965791699709
60	318	36	59.987410598807
60	872	37	72.232283856068
60	873	38	84.492720697472
60	874	39	96.709707515967
60	875	40	108.68484003341
60	876	41	120.55199139682
60	877	42	132.32519011237
60	878	43	144.17170541194
60	879	44	156.13056944812
60	880	45	167.96914468101
60	881	46	179.79304774521
60	882	47	188.9042600972
60	883	48	194.11408492314
60	884	49	194.87940969295
60	885	50	195.13106132177
60	886	51	195.1683050358
60	887	52	195.19510805837
60	888	53	195.19556136266
60	889	54	195.90276662313
60	890	55	198.03238969054
60	891	56	200.91232769043
60	1821	57	202.06564237496
60	1822	58	204.36982996954
60	1823	59	208.57434916722
60	1824	60	213.84494038375
60	1825	61	220.04056536409
60	1826	62	228.79274248538
60	1827	63	239.47018973116
60	1828	64	251.28253330024
60	1829	65	263.2710964397
60	1830	66	275.98520362262
60	1831	67	288.5085855415
60	1832	68	301.08022111672
60	1833	69	313.30192628498
60	1834	70	324.95378015446
60	1835	71	337.15538779329
60	1836	72	349.73173488164
60	1837	73	361.87157599786
60	1838	74	374.12223521964
[...]
180	6587	168	350.93031121076
180	6588	169	364.69038845038
180	6589	170	378.15983570674
180	6590	171	391.67846910308
180	6591	172	406.17169840247
180	6592	173	420.34432886736
199	4328	98	3.0364654543926
199	4329	99	4.9083164470833
199	4330	100	4.0906128194004
199	4331	101	7.0907944696508
199	4332	102	4.7953360825607
199	4333	103	0.973
199	4334	104	3.4212195561717
199	4335	105	0.973
199	4336	106	1.6701987267366
199	4337	107	4.5678840957751
199	4338	108	0.973
199	4339	109	0.973
199	4340	110	0.973
199	4341	111	0.973
199	4342	112	1.111488805344
199	4343	113	1.1116258949246
199	4344	114	1.1100474019875
199	4345	115	1.1100351293195
199	4346	116	0.973
199	5636	117	0.973
199	5637	118	0.973
199	5638	119	0.973
199	5639	120	0.973
199	5640	121	0.973
199	5641	122	0.973
199	5642	123	0.973
199	5643	124	0.973
199	5644	125	0.973
199	5645	126	0.973
199	5646	127	0.973
199	5647	128	0.973
199	5648	129	0.973
199	5649	130	0.973
199	5650	131	0.973
199	5651	132	0.973
199	5652	133	0.973
199	5653	134	0.973
199	5654	135	0.973
199	5655	136	0.973
199	6431	137	0.973
199	6432	138	2.0137501142841
199	6433	139	1.459942630771
199	6434	140	3.4818632678102
199	6435	141	5.6716018651248
199	6436	142	7.2054708760399
199	6437	143	4.2551706016836
199	6438	144	2.0150951652963
199	6439	145	0.973
199	6440	146	0.973
199	6441	147	0.973
199	6442	148	0.973
199	6443	149	0.973
199	6444	150	1.5192429266731
199	6445	151	2.7373272555193
199	6446	152	1.8467808433462
199	6447	153	2.1947850534007
199	6448	154	5.1564086284966
199	6449	155	4.2472828239346
199	6450	156	6.1698857794201
199	6576	157	5.5026818036367
199	6577	158	1.4854598574971
199	6578	159	1.6060470042594
199	6579	160	0.973
199	6580	161	0.973
199	6581	162	3.4273400294985
199	6582	163	2.7139777609569
199	6583	164	0.973
199	6584	165	2.9754952443036
199	6585	166	3.9546994189171
199	6586	167	1.7857927076908
199	6587	168	0.973
199	6588	169	1.3416750651704
199	6589	170	0.973
199	6590	171	3.451314425692
199	6591	172	2.6372055637956
199	6592	173	0.973
198	4328	98	2.064228609344
198	4329	99	2.4326775516849
198	4330	100	1.4491059813648
198	4331	101	2.3164904533653
198	4332	102	1.1598424628827
198	4333	103	-0.39377820445225
198	4334	104	0.61628997754306
198	4335	105	-0.37682199887931
198	4336	106	-0.026803630427457
198	4337	107	0.97641070384998
198	4338	108	-4.1760882808173
198	4339	109	-3.6375403781663
198	4340	110	-3.6743741284963
198	4341	111	-0.11252221173149
198	4342	112	-0.037623270828909
198	4343	113	-0.0036719281852867
198	4344	114	-0.033156341147077
198	4345	115	-0.00044785625925707
198	4346	116	-0.00072985271303279
198	5636	117	0
198	5637	118	0
198	5638	119	0
198	5639	120	0
198	5640	121	0
198	5641	122	0
198	5642	123	0
198	5643	124	0
198	5644	125	0
198	5645	126	0
198	5646	127	0
198	5647	128	0
198	5648	129	0
198	5649	130	0
198	5650	131	0
198	5651	132	0
198	5652	133	0
198	5653	134	0
198	5654	135	0
198	5655	136	0
198	6431	137	0
198	6432	138	1.8383791663066
198	6433	139	0.43622347252868
198	6434	140	2.0620574342087
198	6435	141	2.5358590961201
198	6436	142	2.4727866929257
198	6437	143	1.0179696376159
198	6438	144	0.11611707563803
198	6439	145	-4.2983060629755
198	6440	146	-0.37611364768191
198	6441	147	-4.1907267175993
198	6442	148	-0.22533026280926
198	6443	149	-0.81864913971351
198	6444	150	0.93047792826191
198	6445	151	1.8255798041697
198	6446	152	0.57718196323981
198	6447	153	0.75726626734151
198	6448	154	2.2213458395097
198	6449	155	1.3543367446866
198	6450	156	1.843723193137
198	6576	157	1.3451089444477
198	6577	158	-0.1115289270645
198	6578	159	-0.065672830096446
198	6579	160	-0.3608131212648
198	6580	161	-0.36702327793464
198	6581	162	0.61576064166147
198	6582	163	0.32990129701793
198	6583	164	-1.0576269738143
198	6584	165	0.46631406708621
198	6585	166	0.76226636895444
198	6586	167	-0.010784863657317
198	6587	168	-0.23520467868075
198	6588	169	-0.16287277564406
198	6589	170	-0.79521579965949
198	6590	171	0.63100295504555
198	6591	172	0.30754305392038
198	6592	173	-0.49943235137034
195	4327	97	1.4585123420693
195	4328	98	3.5227409514133
195	4329	99	5.9554185030982
195	4330	100	7.404524484463
195	4331	101	9.7210149378283
195	4332	102	10.880857400711
195	4333	103	10.487079196259
195	4334	104	11.103369173802
195	4335	105	10.726547174922
195	4336	106	10.699743544495
195	4337	107	11.676154248345
195	4338	108	7.5000659675277
195	4339	109	3.8625255893614
195	4340	110	0.18815146086505
195	4341	111	0.075629249133563
195	4342	112	0.038005978304654
195	4343	113	0.034334050119367
195	4344	114	0.0011777089722899
195	4345	115	0.00072985271303279
195	4346	116	0
195	5636	117	0
195	5637	118	0
195	5638	119	0
195	5639	120	0
195	5640	121	0
195	5641	122	0
195	5642	123	0
195	5643	124	0
195	5644	125	0
195	5645	126	0
195	5646	127	0
195	5647	128	0
195	5648	129	0
195	5649	130	0
195	5650	131	0
195	5651	132	0
195	5652	133	0
195	5653	134	0
195	5654	135	0
195	5655	136	0
195	6431	137	0
195	6432	138	1.8383791663066
195	6433	139	2.2746026388352
195	6434	140	4.3366600730439
195	6435	141	6.872519169164
195	6436	142	9.3453058620898
195	6437	143	10.363275499706
195	6438	144	10.479392575344
195	6439	145	6.1810865123682
195	6440	146	5.8049728646863
195	6441	147	1.614246147087
195	6442	148	1.3889158842777
195	6443	149	0.5702667445642
195	6444	150	1.5007446728261
195	6445	151	3.3263244769958
195	6446	152	3.9035064402356
195	6447	153	4.6607727075771
195	6448	154	6.8821185470869
195	6449	155	8.2364552917734
195	6450	156	10.08017848491
195	6576	157	11.425287429358
195	6577	158	11.313758502294
195	6578	159	11.248085672197
195	6579	160	10.887272550932
195	6580	161	10.520249272998
195	6581	162	11.136009914659
195	6582	163	11.465911211677
195	6583	164	10.408284237863
195	6584	165	10.874598304949
195	6585	166	11.636864673903
195	6586	167	11.626079810246
195	6587	168	11.390875131565
195	6588	169	11.228002355921
195	6589	170	10.432786556262
195	6590	171	11.063789511307
195	6591	172	11.371332565228
195	6592	173	10.871900213857
193	2789	96	419.9
193	4327	97	418.44148765793
193	4328	98	414.91874670652
193	4329	99	408.96332820342
193	4330	100	401.55880371896
193	4331	101	391.83778878113
193	4332	102	380.95693138042
193	4333	103	370.46985218416
193	4334	104	359.36648301036
193	4335	105	348.63993583543
193	4336	106	337.94019229094
193	4337	107	326.26403804259
193	4338	108	318.86397207507
193	4339	109	315.00144648571
193	4340	110	314.81329502484
193	4341	111	314.73766577571
193	4342	112	314.6996597974
193	4343	113	314.66532574728
193	4344	114	314.66414803831
193	4345	115	314.6634181856
193	4346	116	314.6634181856
193	5636	117	314.6634181856
193	5637	118	314.6634181856
193	5638	119	314.6634181856
193	5639	120	314.6634181856
193	5640	121	314.6634181856
193	5641	122	314.6634181856
193	5642	123	314.6634181856
193	5643	124	314.6634181856
193	5644	125	314.6634181856
193	5645	126	314.6634181856
193	5646	127	314.6634181856
193	5647	128	314.6634181856
193	5648	129	314.6634181856
193	5649	130	314.6634181856
193	5650	131	314.6634181856
193	5651	132	314.6634181856
193	5652	133	314.6634181856
193	5653	134	314.6634181856
193	5654	135	314.6634181856
193	5655	136	314.6634181856
193	6431	137	314.6634181856
193	6432	138	312.82503901929
193	6433	139	310.55043638046
193	6434	140	306.21377630741
193	6435	141	299.34125713825
193	6436	142	289.99595127616
193	6437	143	279.63267577645
193	6438	144	269.15328320111
193	6439	145	262.97219668874
193	6440	146	257.16722382405
193	6441	147	255.55297767697
193	6442	148	254.16406179269
193	6443	149	253.59379504812
193	6444	150	252.0930503753
193	6445	151	248.7667258983
193	6446	152	244.86321945807
193	6447	153	240.20244675049
193	6448	154	233.3203282034
193	6449	155	225.08387291163
193	6450	156	215.00369442672
193	6576	157	203.57840699736
193	6577	158	192.26464849507
193	6578	159	181.01656282287
193	6579	160	170.12929027194
193	6580	161	159.60904099894
193	6581	162	148.47303108428
193	6582	163	137.0071198726
193	6583	164	126.59883563474
193	6584	165	115.82423732979
193	6585	166	104.18737265589
193	6586	167	92.561292845642
193	6587	168	81.170417714077
193	6588	169	69.942415358156
193	6589	170	59.509628801894
193	6590	171	48.445839290586
193	6591	172	37.074506725359
193	6592	173	26.202606511501
192	2789	96	226.6
192	4327	97	226.6
192	4328	98	226.6
192	4329	99	226.6
192	4330	100	226.6
192	4331	101	226.6
192	4332	102	226.6
192	4333	103	226.6
192	4334	104	226.6
192	4335	105	226.6
192	4336	106	226.6
192	4337	107	226.6
192	4338	108	226.6
192	4339	109	226.6
192	4340	110	226.6
192	4341	111	226.6
192	4342	112	226.6
192	4343	113	226.6
192	4344	114	226.6
192	4345	115	226.6
192	4346	116	226.6
192	5636	117	226.6
192	5637	118	226.6
192	5638	119	226.6
192	5639	120	226.6
192	5640	121	226.6
192	5641	122	226.6
192	5642	123	226.6
192	5643	124	226.6
192	5644	125	226.6
192	5645	126	226.6
192	5646	127	226.6
192	5647	128	226.6
192	5648	129	226.6
192	5649	130	226.6
192	5650	131	226.6
192	5651	132	226.6
192	5652	133	226.6
192	5653	134	226.6
192	5654	135	226.6
192	5655	136	226.6
192	6431	137	226.6
192	6432	138	226.6
192	6433	139	226.6
192	6434	140	226.6
192	6435	141	226.6
192	6436	142	226.6
192	6437	143	226.6
192	6438	144	226.6
192	6439	145	226.6
192	6440	146	226.6
192	6441	147	226.6
192	6442	148	226.6
192	6443	149	226.6
192	6444	150	226.6
192	6445	151	226.6
192	6446	152	226.6
192	6447	153	226.6
192	6448	154	226.6
192	6449	155	226.6
192	6450	156	226.6
192	6576	157	226.6
192	6577	158	226.6
192	6578	159	226.6
192	6579	160	226.6
192	6580	161	226.6
192	6581	162	226.6
192	6582	163	226.6
192	6583	164	226.6
192	6584	165	226.6
192	6585	166	226.6
192	6586	167	226.6
192	6587	168	226.6
192	6588	169	226.6
192	6589	170	226.6
192	6590	171	226.6
192	6591	172	226.6
192	6592	173	226.6
197	4328	98	3.6256862113491
197	4329	99	4.2220737068741
197	4330	100	4.2796311360074
197	4331	101	7.6167035646502
197	4332	102	8.1031737485992
197	4333	103	4.2493399655071
197	4334	104	1.2464114222196
197	4335	105	0.973
197	4336	106	4.0475647604661
197	4337	107	1.4048399478335
197	4338	108	1.3569007000085
197	4339	109	0.973
197	4340	110	0.973
197	4341	111	0.973
197	4342	112	0.973
197	4343	113	0.973
197	4344	114	0.973
197	4345	115	1.1273385366981
197	4346	116	0.973
197	5636	117	1.1103823131659
197	5637	118	1.1102597084599
197	5638	119	1.1101446632026
197	5639	120	1.110064617153
197	5640	121	1.1100069863716
197	5641	122	1.1100088529704
197	5642	123	0.973
197	5643	124	0.973
197	5644	125	0.973
197	5645	126	0.973
197	5646	127	1.150246524724
197	5647	128	1.2448302693539
197	5648	129	0.973
197	5649	130	0.973
197	5650	131	1.1159557683897
197	5651	132	1.1207480668718
197	5652	133	1.1157076294356
197	5653	134	0.973
197	5654	135	1.2255212866752
197	5655	136	1.7078252806575
197	6431	137	0.973
197	6432	138	3.7506999647847
197	6433	139	0.973
197	6434	140	1.9802302922549
197	6435	141	0.973
197	6436	142	2.3562174596093
197	6437	143	4.9048881624983
197	6438	144	0.973
197	6439	145	0.973
197	6440	146	1.338934372662
197	6441	147	0.973
197	6442	148	0.973
197	6443	149	0.973
197	6444	150	1.1126075244416
197	6445	151	1.1103234335439
197	6446	152	1.1101071741149
197	6447	153	0.973
197	6448	154	0.973
197	6449	155	0.973
197	6450	156	0.973
197	6576	157	1.4902296804792
197	6577	158	3.206896741506
197	6578	159	4.1586979536394
197	6579	160	2.9671697625597
197	6580	161	3.4013214004922
197	6581	162	6.3173644733271
197	6582	163	5.7145998500816
197	6583	164	5.6591877215255
197	6584	165	3.0976978888045
197	6585	166	0.973
197	6586	167	4.4907780557876
197	6587	168	2.2361184244091
197	6588	169	1.1728459402369
197	6589	170	2.728956182051
197	6590	171	0.973
197	6591	172	3.4692792045408
197	6592	173	0.973
197	6593	174	2.6308391957356
197	6594	175	0.973
197	6595	176	2.33045825016
196	4328	98	2.4903291091323
196	4329	99	1.9897882373538
196	4330	100	1.5527035531821
196	4331	101	2.4886596128112
196	4332	102	2.1514019021066
196	4333	103	0.7539924549442
196	4334	104	-0.21599369931501
196	4335	105	-0.62696019334253
196	4336	106	0.70070156680886
196	4337	107	-0.1622486991575
196	4338	108	-0.17532358579338
196	4339	109	-2.2499308749857
196	4340	110	-3.2154911349744
196	4341	111	-2.6780685002228
196	4342	112	-2.3983363145874
196	4343	113	-1.0059075647286
196	4344	114	-0.36187333158247
196	4345	115	-0.019825955216862
196	4346	116	-0.29012639770831
196	5636	117	-0.093765505074185
196	5637	118	-0.0092643942917956
196	5638	119	-0.0026065538945766
196	5639	120	-0.0016875064601213
196	5640	121	-0.001205179331966
196	5641	122	3.7782109785754e-05
196	5642	123	-0.000183484652636
196	5643	124	0
196	5644	125	0
196	5645	126	0
196	5646	127	0.32063306531841
196	5647	128	0.48985756832145
196	5648	129	-0.18454371435395
196	5649	130	-0.40983019640264
196	5650	131	-0.050741841895709
196	5651	132	0.029120045321157
196	5652	133	-0.043415447959848
196	5653	134	-0.12151383675896
196	5654	135	0.58265092968685
196	5655	136	1.1815231215532
196	6431	137	-0.12693530768611
196	6432	138	2.4529901833506
196	6433	139	-0.44735449371312
196	6434	140	0.6316771329902
196	6435	141	-0.60130372747953
196	6436	142	0.91215931460126
196	6437	143	2.1203368043066
196	6438	144	-4.3508009103825
196	6439	145	-1.3825236833459
196	6440	146	0.45224533196323
196	6441	147	-0.56963114451274
196	6442	148	-0.27692484531043
196	6443	149	-0.53892056326634
196	6444	150	-0.01142808606572
196	6445	151	-0.048478260388631
196	6446	152	-0.0065505860309519
196	6447	153	-0.002296851859769
196	6448	154	0
196	6449	155	0
196	6450	156	0
196	6576	157	1.1597325624447
196	6577	158	2.3058594473172
196	6578	159	2.0723543733892
196	6579	160	0.96806686477089
196	6580	161	1.0382534499667
196	6581	162	2.0231701802928
196	6582	163	1.4821658493485
196	6583	164	1.2734166567172
196	6584	165	0.3868355471408
196	6585	166	-0.53011256742757
196	6586	167	0.81466086646542
196	6587	168	0.091281207208521
196	6588	169	-0.24308183607645
196	6589	170	0.24734651839826
196	6590	171	-0.47169282308314
196	6591	172	0.48137148485985
196	6592	173	-0.29322425515856
196	6593	174	0.21926692083944
196	6594	175	-0.75966229052283
196	6595	176	0.14867154983804
194	4327	97	1.3811846568715
194	4328	98	3.8715137660038
194	4329	99	5.8613020033576
194	4330	100	7.4140055565396
194	4331	101	9.9026651693508
194	4332	102	12.054067071457
194	4333	103	12.808059526402
194	4334	104	12.592065827087
194	4335	105	11.965105633744
194	4336	106	12.665807200553
194	4337	107	12.503558501395
194	4338	108	12.328234915602
194	4339	109	10.078304040616
194	4340	110	6.862812905642
194	4341	111	4.1847444054191
194	4342	112	1.7864080908317
194	4343	113	0.78050052610313
194	4344	114	0.41862719452067
194	4345	115	0.3988012393038
194	4346	116	0.10867484159549
194	5636	117	0.01490933652131
194	5637	118	0.0056449422295143
194	5638	119	0.0030383883349376
194	5639	120	0.0013508818748163
194	5640	121	0.00014570254285025
194	5641	122	0.000183484652636
194	5642	123	0
194	5643	124	0
194	5644	125	0
194	5645	126	0
194	5646	127	0.32063306531841
194	5647	128	0.81049063363987
194	5648	129	0.62594691928591
194	5649	130	0.21611672288327
194	5650	131	0.16537488098756
194	5651	132	0.19449492630872
194	5652	133	0.15107947834887
194	5653	134	0.029565641589914
194	5654	135	0.61221657127677
194	5655	136	1.7937396928299
194	6431	137	1.6668043851438
194	6432	138	4.1197945684944
194	6433	139	3.6724400747813
194	6434	140	4.3041172077715
194	6435	141	3.702813480292
194	6436	142	4.6149727948933
194	6437	143	6.7353095991998
194	6438	144	2.3845086888173
194	6439	145	1.0019850054713
194	6440	146	1.4542303374346
194	6441	147	0.88459919292184
194	6442	148	0.60767434761141
194	6443	149	0.068753784345072
194	6444	150	0.057325698279352
194	6445	151	0.0088474378907209
194	6446	152	0.002296851859769
194	6447	153	0
194	6448	154	0
194	6449	155	0
194	6450	156	0
194	6576	157	1.1597325624447
194	6577	158	3.4655920097619
194	6578	159	5.5379463831511
194	6579	160	6.506013247922
194	6580	161	7.5442666978887
194	6581	162	9.5674368781815
194	6582	163	11.04960272753
194	6583	164	12.323019384247
194	6584	165	12.709854931388
194	6585	166	12.179742363961
194	6586	167	12.994403230426
194	6587	168	13.085684437634
194	6588	169	12.842602601558
194	6589	170	13.089949119956
194	6590	171	12.618256296873
194	6591	172	13.099627781733
194	6592	173	12.806403526574
194	6593	174	13.025670447414
194	6594	175	12.266008156891
194	6595	176	12.414679706729
191	2789	96	226.6
191	4327	97	226.6
191	4328	98	226.6
191	4329	99	226.6
191	4330	100	226.6
191	4331	101	226.6
191	4332	102	226.6
191	4333	103	226.6
191	4334	104	226.6
191	4335	105	226.6
191	4336	106	226.6
191	4337	107	226.6
191	4338	108	226.6
191	4339	109	226.6
191	4340	110	226.6
191	4341	111	226.6
191	4342	112	226.6
191	4343	113	226.6
191	4344	114	226.6
191	4345	115	226.6
191	4346	116	226.6
191	5636	117	226.6
191	5637	118	226.6
191	5638	119	226.6
191	5639	120	226.6
191	5640	121	226.6
191	5641	122	226.6
191	5642	123	226.6
191	5643	124	226.6
191	5644	125	226.6
191	5645	126	226.6
191	5646	127	226.6
191	5647	128	226.6
191	5648	129	226.6
191	5649	130	226.6
191	5650	131	226.6
191	5651	132	226.6
191	5652	133	226.6
191	5653	134	226.6
191	5654	135	226.6
191	5655	136	226.6
191	6431	137	226.6
191	6432	138	226.6
191	6433	139	226.6
191	6434	140	226.6
191	6435	141	226.6
191	6436	142	226.6
191	6437	143	226.6
191	6438	144	226.6
191	6439	145	226.6
191	6440	146	226.6
191	6441	147	226.6
191	6442	148	226.6
191	6443	149	226.6
191	6444	150	226.6
191	6445	151	226.6
191	6446	152	226.6
191	6447	153	226.6
191	6448	154	226.6
191	6449	155	226.6
191	6450	156	226.6
191	6576	157	226.6
191	6577	158	226.6
191	6578	159	226.6
191	6579	160	226.6
191	6580	161	226.6
191	6581	162	226.6
191	6582	163	226.6
191	6583	164	226.6
191	6584	165	226.6
191	6585	166	226.6
191	6586	167	226.6
191	6587	168	226.6
191	6588	169	226.6
191	6589	170	226.6
191	6590	171	226.6
191	6591	172	226.6
191	6592	173	226.6
191	6593	174	226.6
191	6594	175	226.6
191	6595	176	226.6
190	2789	96	30.1
190	4327	97	31.481184656871
190	4328	98	35.352698422875
190	4329	99	41.214000426233
190	4330	100	48.628005982772
190	4331	101	58.530671152123
190	4332	102	70.584738223581
190	4333	103	83.392797749982
190	4334	104	95.984863577069
190	4335	105	107.94996921081
190	4336	106	120.61577641137
190	4337	107	133.01933491276
190	4338	108	145.34756982836
190	4339	109	155.42587386898
190	4340	110	162.28868677462
190	4341	111	166.47343118004
190	4342	112	168.25983927087
190	4343	113	169.04033979698
190	4344	114	169.4589669915
190	4345	115	169.8577682308
190	4346	116	169.9664430724
190	5636	117	169.98135240892
190	5637	118	169.98699735115
190	5638	119	169.99003573948
190	5639	120	169.99138662136
190	5640	121	169.9915323239
190	5641	122	169.99171580855
190	5642	123	169.99171580855
190	5643	124	169.99171580855
190	5644	125	169.99171580855
190	5645	126	169.99171580855
190	5646	127	170.31234887387
190	5647	128	171.12283950751
190	5648	129	171.7487864268
190	5649	130	171.96490314968
190	5650	131	172.13027803067
190	5651	132	172.32477295698
190	5652	133	172.47585243532
190	5653	134	172.50541807691
190	5654	135	173.11763464819
190	5655	136	174.91137434102
190	6431	137	176.57817872616
190	6432	138	180.69797329466
190	6433	139	184.37041336944
190	6434	140	188.67453057721
190	6435	141	192.3773440575
190	6436	142	196.9923168524
190	6437	143	203.7276264516
190	6438	144	206.11213514041
190	6439	145	207.11412014589
190	6440	146	208.56835048332
190	6441	147	209.45294967624
190	6442	148	210.06062402385
190	6443	149	210.1293778082
190	6444	150	210.18670350648
190	6445	151	210.19555094437
190	6446	152	210.19784779623
190	6447	153	210.19784779623
190	6448	154	210.19784779623
190	6449	155	210.19784779623
190	6450	156	210.19784779623
190	6576	157	211.35758035867
190	6577	158	214.82317236843
190	6578	159	220.36111875159
190	6579	160	226.86713199951
190	6580	161	234.4113986974
190	6581	162	243.97883557558
190	6582	163	255.02843830311
190	6583	164	267.35145768736
190	6584	165	280.06131261874
190	6585	166	292.2410549827
190	6586	167	305.23545821313
190	6587	168	318.32114265076
190	6588	169	331.06374525232
190	6589	170	344.15369437228
190	6590	171	356.77195066915
190	6591	172	369.87157845088
190	6592	173	382.67798197746
190	6593	174	395.70365242487
190	6594	175	407.96966058176
190	6595	176	420.38434028849

